1
    SWAT Dec 23 2016    VER 2016/Rev 664                                                                 0/ 0/   0      0: 0: 0

    General Input/Output section (file.cio):                                        
    4/18/2018 12:00:00 AM ARCGIS-SWAT interface AV                                  
                                                                                    
         Number of years in run:   19
         Area of watershed:      206.654 km2
1
    SWAT Dec 23 2016    VER 2016/Rev 664                                            

    General Input/Output section (file.cio):                                        
    4/18/2018 12:00:00 AM ARCGIS-SWAT interface AV                                  
                                                                                    
Annual Summary for Watershed in year    1 of simulation

UNIT                                    PERCO    TILE                           WATER     SED     NO3     NO3     NO3     NO3        N       P       P
TIME     PREC    SURQ    LATQ     GWQ    LATE       Q     SW       ET     PET   YIELD   YIELD    SURQ    LATQ    PERC    CROP  ORGANIC SOLUBLE ORGANIC TILENO3
         (mm)    (mm)    (mm)    (mm)    (mm)    (mm)    (mm)    (mm)    (mm)    (mm)   (t/ha)  ------------------(kg nutrient/ha)-------------------- (kg/ha)
1
    SWAT Dec 23 2016    VER 2016/Rev 664                                            

    General Input/Output section (file.cio):                                        
    4/18/2018 12:00:00 AM ARCGIS-SWAT interface AV                                  
                                                                                    
Annual Summary for Watershed in year    2 of simulation

UNIT                                    PERCO    TILE                           WATER     SED     NO3     NO3     NO3     NO3        N       P       P
TIME     PREC    SURQ    LATQ     GWQ    LATE       Q     SW       ET     PET   YIELD   YIELD    SURQ    LATQ    PERC    CROP  ORGANIC SOLUBLE ORGANIC TILENO3
         (mm)    (mm)    (mm)    (mm)    (mm)    (mm)    (mm)    (mm)    (mm)    (mm)   (t/ha)  ------------------(kg nutrient/ha)-------------------- (kg/ha)
1
    SWAT Dec 23 2016    VER 2016/Rev 664                                            

    General Input/Output section (file.cio):                                        
    4/18/2018 12:00:00 AM ARCGIS-SWAT interface AV                                  
                                                                                    
Annual Summary for Watershed in year    3 of simulation

UNIT                                    PERCO    TILE                           WATER     SED     NO3     NO3     NO3     NO3        N       P       P
TIME     PREC    SURQ    LATQ     GWQ    LATE       Q     SW       ET     PET   YIELD   YIELD    SURQ    LATQ    PERC    CROP  ORGANIC SOLUBLE ORGANIC TILENO3
         (mm)    (mm)    (mm)    (mm)    (mm)    (mm)    (mm)    (mm)    (mm)    (mm)   (t/ha)  ------------------(kg nutrient/ha)-------------------- (kg/ha)
1
    SWAT Dec 23 2016    VER 2016/Rev 664                                            

    General Input/Output section (file.cio):                                        
    4/18/2018 12:00:00 AM ARCGIS-SWAT interface AV                                  
                                                                                    
Annual Summary for Watershed in year    4 of simulation

UNIT                                    PERCO    TILE                           WATER     SED     NO3     NO3     NO3     NO3        N       P       P
TIME     PREC    SURQ    LATQ     GWQ    LATE       Q     SW       ET     PET   YIELD   YIELD    SURQ    LATQ    PERC    CROP  ORGANIC SOLUBLE ORGANIC TILENO3
         (mm)    (mm)    (mm)    (mm)    (mm)    (mm)    (mm)    (mm)    (mm)    (mm)   (t/ha)  ------------------(kg nutrient/ha)-------------------- (kg/ha)
    1    0.00    0.00    0.02    0.32    0.00    0.00   82.91    0.20    0.57    0.36    0.00    0.00    0.00    0.00    0.00     0.00    0.00    0.00    0.00
    2    0.00    0.00    0.02    0.33    0.00    0.00   82.52    0.41    1.22    0.36    0.00    0.00    0.00    0.00    0.00     0.00    0.00    0.00    0.00
    3    0.00    0.00    0.02    0.33    0.00    0.00   82.27    0.26    0.80    0.37    0.00    0.00    0.00    0.00    0.00     0.00    0.00    0.00    0.00
    4    0.00    0.00    0.02    0.33    0.00    0.00   82.27    0.01    0.01    0.37    0.00    0.00    0.00    0.00    0.00     0.00    0.00    0.00    0.00
    5    0.00    0.00    0.01    0.33    0.00    0.00   82.01    0.28    0.88    0.37    0.00    0.00    0.00    0.00    0.00     0.00    0.00    0.00    0.00
    6    0.00    0.00    0.01    0.34    0.00    0.00   82.01    0.02    0.03    0.37    0.00    0.00    0.00    0.00    0.00     0.00    0.00    0.00    0.00
    7    5.10    0.00    0.01    0.34    0.00    0.00   81.95    0.07    0.21    0.37    0.00    0.00    0.00    0.00    0.00     0.00    0.00    0.00    0.00
    8    0.00    0.00    0.01    0.34    0.00    0.00   81.85    0.11    0.35    0.37    0.00    0.00    0.00    0.00    0.00     0.00    0.00    0.00    0.00
    9    0.80    0.00    0.01    0.34    0.00    0.00   81.76    0.09    0.29    0.37    0.00    0.00    0.00    0.00    0.00     0.00    0.00    0.00    0.00
   10    0.00    0.00    0.01    0.34    0.00    0.00   81.76    0.75    1.49    0.37    0.00    0.00    0.00    0.00    0.00     0.00    0.00    0.00    0.00
   11    0.00    0.00    0.01    0.33    0.00    0.00   81.76    1.19    2.38    0.37    0.00    0.00    0.00    0.00    0.00     0.00    0.00    0.00    0.00
   12    0.00    0.00    0.01    0.33    0.00    0.00   81.76    0.21    0.40    0.36    0.00    0.00    0.00    0.00    0.00     0.00    0.00    0.00    0.00
   13   18.80    0.00    0.01    0.33    0.00    0.00   81.68    0.09    0.30    0.36    0.00    0.00    0.00    0.00    0.00     0.00    0.00    0.00    0.00
   14    0.00    0.00    0.01    0.33    0.00    0.00   81.26    0.44    1.44    0.36    0.00    0.00    0.00    0.00    0.00     0.00    0.00    0.00    0.00
   15    0.80    0.00    0.01    0.33    0.00    0.00   81.25    0.02    0.05    0.35    0.00    0.00    0.00    0.00    0.00     0.00    0.00    0.00    0.00
   16    0.00    0.00    0.01    0.32    0.00    0.00   81.03    0.23    0.78    0.35    0.00    0.00    0.00    0.00    0.00     0.00    0.00    0.00    0.00
   17    1.30    0.00    0.01    0.32    0.00    0.00   81.03    0.01    0.01    0.35    0.00    0.00    0.00    0.00    0.00     0.00    0.00    0.00    0.00
   18    0.00    0.00    0.01    0.32    0.00    0.00   80.59    0.45    1.60    0.34    0.00    0.00    0.00    0.00    0.00     0.00    0.00    0.00    0.00
   19    2.50    0.00    0.01    0.31    0.00    0.00   80.59    0.01    0.01    0.34    0.00    0.00    0.00    0.00    0.00     0.00    0.00    0.00    0.00
   20    0.30    0.00    0.01    0.31    0.00    0.00   80.59    0.01    0.01    0.34    0.00    0.00    0.00    0.00    0.00     0.00    0.00    0.00    0.00
   21    4.60    0.00    0.01    0.31    0.00    0.00   80.59    0.01    0.01    0.33    0.00    0.00    0.00    0.00    0.00     0.00    0.00    0.00    0.00
   22    0.00    0.00    0.01    0.30    0.00    0.00   80.59    0.70    1.39    0.33    0.00    0.00    0.00    0.00    0.00     0.00    0.00    0.00    0.00
   23    0.00    0.00    0.00    0.30    0.00    0.00   80.59    0.79    1.58    0.32    0.00    0.00    0.00    0.00    0.00     0.00    0.00    0.00    0.00
   24    4.30    0.29    0.05    0.30    5.84    0.00   85.36    0.01    0.01    0.64    0.00    0.03    0.00    0.20    0.00     0.00    0.00    0.00    0.00
   25    0.00    0.00    0.04    0.30    0.00    0.00   85.36    0.22    0.43    0.37    0.00    0.00    0.00    0.00    0.00     0.00    0.00    0.00    0.00
   26    0.00    0.00    0.03    0.30    0.00    0.00   85.36    0.14    0.28    0.35    0.00    0.00    0.00    0.00    0.00     0.00    0.00    0.00    0.00
   27    0.00    0.00    0.02    0.30    0.00    0.00   85.36    0.53    1.04    0.35    0.00    0.00    0.00    0.00    0.00     0.00    0.00    0.00    0.00
   28    0.00    0.00    0.02    0.31    0.00    0.00   85.36    0.33    0.64    0.34    0.00    0.00    0.00    0.00    0.00     0.00    0.00    0.00    0.00
   29    1.50    0.00    0.02    0.31    1.38    0.00   85.40    0.00    0.01    0.35    0.00    0.00    0.00    0.06    0.00     0.00    0.00    0.00    0.00
   30    5.10    0.00    0.02    0.31    0.00    0.00   85.40    0.06    0.11    0.35    0.00    0.00    0.00    0.00    0.00     0.00    0.00    0.00    0.00
   31    9.10    0.00    0.02    0.31    0.00    0.00   85.40    0.01    0.01    0.35    0.00    0.00    0.00    0.00    0.00     0.00    0.00    0.00    0.00
    1   54.20    0.29    0.45    9.90    7.22    0.00   85.40    7.65   18.35   11.28    0.00    0.03    0.00    0.26    0.00     0.00    0.00    0.00    0.00
   32   10.90    0.00    0.01    0.31    0.00    0.00   85.40    0.01    0.02    0.34    0.00    0.00    0.00    0.00    0.00     0.00    0.00    0.00    0.00
   33    0.00    0.00    0.01    0.31    0.00    0.00   85.28    0.14    0.27    0.34    0.00    0.00    0.00    0.00    0.00     0.00    0.00    0.00    0.00
   34    0.00    0.00    0.01    0.31    0.00    0.00   84.84    0.46    0.94    0.34    0.00    0.00    0.00    0.00    0.00     0.00    0.00    0.00    0.00
   35    0.00    0.00    0.01    0.31    0.00    0.00   84.33    0.54    1.24    0.34    0.00    0.00    0.00    0.00    0.00     0.00    0.00    0.00    0.00
   36    0.00    0.00    0.01    0.31    0.00    0.00   84.25    0.09    0.23    0.34    0.00    0.00    0.00    0.00    0.00     0.00    0.00    0.00    0.00
   37    0.00    0.00    0.01    0.31    0.00    0.00   83.99    0.29    0.74    0.33    0.00    0.00    0.00    0.00    0.00     0.00    0.00    0.00    0.00
   38    0.00    0.00    0.01    0.30    0.00    0.00   83.57    0.44    1.19    0.33    0.00    0.00    0.00    0.00    0.00     0.00    0.00    0.00    0.00
   39    0.00    0.00    0.01    0.30    0.00    0.00   83.05    0.55    1.59    0.33    0.00    0.00    0.00    0.00    0.00     0.00    0.00    0.00    0.00
   40    0.00    0.00    0.01    0.30    0.00    0.00   82.72    0.34    1.04    0.33    0.00    0.00    0.00    0.00    0.00     0.00    0.00    0.00    0.00
   41    7.90    0.00    0.01    0.30    0.00    0.00   82.72    0.00    0.01    0.32    0.00    0.00    0.00    0.00    0.00     0.00    0.00    0.00    0.00
   42    7.60    0.00    0.01    0.29    0.00    0.00   82.64    0.08    0.26    0.32    0.00    0.00    0.00    0.00    0.00     0.00    0.00    0.00    0.00
   43    0.00    0.00    0.01    0.29    0.00    0.00   82.42    0.24    0.75    0.32    0.00    0.00    0.00    0.00    0.00     0.00    0.00    0.00    0.00
   44    0.30    0.00    0.01    0.29    0.00    0.00   82.42    0.01    0.02    0.31    0.00    0.00    0.00    0.00    0.00     0.00    0.00    0.00    0.00
   45    0.00    0.00    0.01    0.29    0.00    0.00   82.27    0.17    0.53    0.31    0.00    0.00    0.00    0.00    0.00     0.00    0.00    0.00    0.00
   46    0.00    0.00    0.00    0.28    0.00    0.00   82.27    0.48    0.95    0.31    0.00    0.00    0.00    0.00    0.00     0.00    0.00    0.00    0.00
   47    0.00    0.00    0.00    0.28    0.00    0.00   82.27    0.67    1.33    0.30    0.00    0.00    0.00    0.00    0.00     0.00    0.00    0.00    0.00
   48    3.00    0.00    0.00    0.27    0.00    0.00   82.27    0.01    0.02    0.30    0.00    0.00    0.00    0.00    0.00     0.00    0.00    0.00    0.00
   49    0.00    0.00    0.00    0.27    0.00    0.00   81.99    0.32    1.00    0.29    0.00    0.00    0.00    0.00    0.00     0.00    0.00    0.00    0.00
   50    0.00    0.00    0.00    0.27    0.00    0.00   81.99    0.73    1.45    0.29    0.00    0.00    0.00    0.00    0.00     0.00    0.00    0.00    0.00
   51    0.00    0.00    0.00    0.26    0.00    0.00   81.99    0.53    1.04    0.28    0.00    0.00    0.00    0.00    0.00     0.00    0.00    0.00    0.00
   52    8.10    1.90    0.12    0.28   18.37    0.00   85.62    0.02    0.03    2.23    0.01    0.06    0.00    0.91    0.00     0.01    0.00    0.00    0.00
   53    0.00    0.27    0.14    0.32    9.28    0.00   85.78    0.47    0.92    0.82    0.00    0.01    0.00    0.48    0.00     0.00    0.00    0.00    0.00
   54    0.00    0.00    0.10    0.35    0.01    0.00   85.77    0.42    0.83    0.49    0.00    0.00    0.00    0.00    0.00     0.00    0.00    0.00    0.00
   55    0.00    0.00    0.08    0.37    0.00    0.00   84.78    1.01    2.03    0.48    0.00    0.00    0.00    0.00    0.00     0.00    0.00    0.00    0.00
   56    0.00    0.00    0.06    0.40    0.00    0.00   84.78    0.53    1.05    0.48    0.00    0.00    0.00    0.00    0.00     0.00    0.00    0.00    0.00
   57    0.00    0.00    0.05    0.42    0.00    0.00   84.78    0.78    1.54    0.49    0.00    0.00    0.00    0.00    0.00     0.00    0.00    0.00    0.00
   58    8.60    0.18    0.09    0.45    6.89    0.00   85.88    0.19    0.36    0.74    0.00    0.00    0.00    0.35    0.00     0.00    0.00    0.00    0.00
   59    0.00    0.00    0.07    0.48    0.01    0.00   85.29    0.61    1.21    0.58    0.00    0.00    0.00    0.00    0.00     0.00    0.00    0.00    0.00
    2   46.40    2.35    0.88    8.91   34.56    0.00   85.29   10.16   22.58   12.69    0.02    0.07    0.00    1.74    0.00     0.01    0.00    0.00    0.00
   60    0.00    0.00    0.06    0.50    0.00    0.00   84.15    1.17    2.76    0.58    0.00    0.00    0.00    0.00    0.00     0.00    0.00    0.00    0.00
   61    0.00    0.00    0.05    0.52    0.00    0.00   83.32    0.85    2.49    0.59    0.00    0.00    0.00    0.00    0.00     0.00    0.00    0.00    0.00
   62    0.30    1.63    0.16    0.56   17.60    0.00   86.02    0.28    0.54    2.29    0.02    0.01    0.00    0.74    0.00     0.01    0.00    0.00    0.00
   63    0.00    0.00    0.11    0.60    0.01    0.00   85.53    0.51    1.01    0.81    0.00    0.00    0.00    0.00    0.00     0.00    0.00    0.00    0.00
   64    0.00    0.00    0.09    0.64    0.01    0.00   85.35    0.21    0.45    0.76    0.00    0.00    0.00    0.00    0.00     0.00    0.00    0.00    0.00
   65    0.00    0.00    0.08    0.67    0.00    0.00   84.89    0.49    1.15    0.77    0.00    0.00    0.00    0.00    0.00     0.00    0.00    0.00    0.00
   66    0.00    0.00    0.06    0.70    0.00    0.00   84.89    0.85    1.69    0.79    0.00    0.00    0.00    0.00    0.00     0.00    0.00    0.00    0.00
   67    0.00    0.00    0.06    0.72    0.00    0.00   84.88    0.78    1.54    0.80    0.00    0.00    0.00    0.00    0.00     0.00    0.00    0.00    0.00
   68    0.30    1.57    0.16    0.77   17.97    0.00   86.16    0.01    0.02    2.45    0.02    0.01    0.00    0.69    0.00     0.01    0.00    0.00    0.00
   69   14.00    0.59    0.20    0.83   12.55    0.00   86.30    0.27    0.53    1.68    0.00    0.00    0.00    0.44    0.00     0.00    0.00    0.00    0.00
   70    0.00    0.00    0.15    0.89    0.02    0.00   85.22    1.09    2.18    1.10    0.00    0.00    0.00    0.00    0.00     0.00    0.00    0.00    0.00
   71    0.00    0.00    0.12    0.94    0.01    0.00   85.21    0.46    0.90    1.09    0.00    0.00    0.00    0.00    0.00     0.00    0.00    0.00    0.00
   72    1.00    0.00    0.10    0.98    0.01    0.00   86.18    0.22    0.44    1.11    0.00    0.00    0.00    0.00    0.00     0.00    0.00    0.00    0.00
   73    0.30    0.00    0.09    1.02    0.19    0.00   86.27    0.01    0.01    1.14    0.00    0.00    0.00    0.01    0.00     0.00    0.00    0.00    0.00
   74    0.00    0.00    0.08    1.05    0.00    0.00   86.27    0.91    1.80    1.16    0.00    0.00    0.00    0.00    0.00     0.00    0.00    0.00    0.00
   75    1.30    0.00    0.08    1.09    1.20    0.00   86.30    0.01    0.01    1.19    0.00    0.00    0.00    0.05    0.00     0.00    0.00    0.00    0.00
   76    0.00    0.00    0.07    1.11    0.00    0.00   86.30    0.83    1.64    1.21    0.00    0.00    0.00    0.00    0.00     0.00    0.00    0.00    0.00
   77    3.30    0.00    0.06    1.14    0.00    0.00   86.30    0.01    0.02    1.23    0.00    0.00    0.00    0.00    0.00     0.00    0.00    0.00    0.00
   78    0.80    0.00    0.05    1.16    0.00    0.00   86.29    0.02    0.03    1.24    0.00    0.00    0.00    0.00    0.00     0.00    0.00    0.00    0.00
   79   20.80    0.00    0.05    1.18    0.00    0.00   86.29    0.02    0.02    1.26    0.00    0.00    0.00    0.00    0.00     0.00    0.00    0.00    0.00
   80    0.30    0.00    0.05    1.19    0.27    0.00   86.30    0.31    0.60    1.27    0.00    0.00    0.00    0.01    0.00     0.00    0.00    0.00    0.00
   81    0.00    0.00    0.04    1.20    0.00    0.00   85.78    0.55    1.10    1.28    0.00    0.00    0.00    0.00    0.00     0.00    0.00    0.00    0.00
   82    0.00    0.00    0.04    1.21    0.00    0.00   85.49    0.31    0.70    1.28    0.00    0.00    0.00    0.00    0.00     0.00    0.00    0.00    0.00
   83    0.50    0.00    0.04    1.22    0.00    0.00   85.98    0.15    0.29    1.29    0.00    0.00    0.00    0.00    0.00     0.00    0.00    0.00    0.00
   84    2.30    0.00    0.03    1.22    0.00    0.00   85.96    0.03    0.05    1.29    0.00    0.00    0.00    0.00    0.00     0.00    0.00    0.00    0.00
   85   23.60    0.00    0.03    1.22    0.00    0.00   85.96    0.02    0.03    1.29    0.00    0.00    0.00    0.00    0.00     0.00    0.00    0.00    0.00
   86   11.20    1.77    0.15    1.25   18.85    0.00   86.46    0.15    0.28    3.12    0.02    0.02    0.00    0.69    0.00     0.01    0.00    0.00    0.00
   87    0.00    0.00    0.11    1.27    0.02    0.00   86.44    1.50    2.98    1.49    0.00    0.00    0.00    0.00    0.00     0.00    0.00    0.00    0.00
   88    0.00    0.00    0.08    1.29    0.01    0.00   86.43    0.22    0.41    1.42    0.00    0.00    0.00    0.00    0.00     0.00    0.00    0.00    0.00
   89    4.10    4.69    0.22    1.35   25.48    0.00   86.52    0.54    1.08    6.11    0.05    0.01    0.00    0.77    0.00     0.01    0.00    0.00    0.00
   90    0.00    0.80    0.25    1.41   14.22    0.00   83.29    3.28    3.77    2.63    0.00    0.00    0.00    0.42    0.00     0.00    0.00    0.00    0.00
    3   84.10   11.05    2.91   30.91  108.42    0.00   83.29   16.05   30.50   45.73    0.10    0.06    0.01    3.81    0.00     0.04    0.01    0.01    0.00
   91   14.20    0.54    0.26    1.48    9.77    0.00   85.54    1.01    1.08    2.35    0.00    0.00    0.00    0.24    0.00     0.00    0.00    0.00    0.00
   92    0.00    0.00    0.20    1.55    0.02    0.00   82.24    3.34    4.73    1.82    0.00    0.00    0.00    0.00    0.00     0.00    0.00    0.00    0.00
   93   10.90    0.30    0.21    1.61    5.88    0.00   85.91    0.62    0.66    2.15    0.00    0.00    0.00    0.14    0.00     0.00    0.00    0.00    0.00
   94    0.00    0.00    0.17    1.67    0.01    0.00   83.38    2.57    3.21    1.90    0.00    0.00    0.00    0.00    0.00     0.00    0.00    0.00    0.00
   95    0.00    0.00    0.14    1.72    0.01    0.00   82.12    1.30    2.35    1.91    0.00    0.00    0.00    0.00    0.00     0.00    0.00    0.00    0.00
   96    0.00    0.00    0.12    1.77    0.00    0.00   80.72    1.45    2.79    1.93    0.00    0.00    0.00    0.00    0.00     0.00    0.00    0.00    0.00
   97    0.00    0.00    0.11    1.81    0.00    0.00   79.28    1.50    3.12    1.96    0.00    0.00    0.00    0.00    0.00     0.00    0.00    0.00    0.00
   98    0.00    0.00    0.09    1.84    0.00    0.00   77.65    1.68    3.87    1.98    0.00    0.00    0.00    0.00    0.00     0.00    0.00    0.00    0.00
   99    0.00    0.00    0.08    1.87    0.00    0.00   75.68    2.04    4.97    2.00    0.00    0.00    0.00    0.00    0.00     0.00    0.00    0.00    0.00
  100    1.00    0.00    0.08    1.89    0.00    0.00   76.49    0.18    0.33    2.01    0.00    0.00    0.00    0.00    0.00     0.00    0.00    0.00    0.00
  101    0.00    0.00    0.07    1.91    0.00    0.00   75.10    1.45    2.72    2.03    0.00    0.00    0.00    0.00    0.00     0.00    0.00    0.00    0.00
  102    0.00    0.00    0.06    1.92    0.00    0.00   73.25    1.90    4.18    2.03    0.00    0.00    0.00    0.00    0.00     0.00    0.00    0.00    0.00
  103    5.30    0.08    0.07    1.93    0.02    0.00   77.52    0.80    0.92    2.12    0.00    0.00    0.00    0.00    0.00     0.00    0.00    0.00    0.00
  104    1.30    0.00    0.06    1.94    0.00    0.00   77.98    0.82    0.95    2.06    0.00    0.00    0.00    0.00    0.00     0.00    0.00    0.00    0.00
  105   14.50    0.49    0.11    1.95    5.02    0.00   84.53    1.89    2.00    2.57    0.00    0.00    0.00    0.14    0.00     0.00    0.00    0.00    0.00
  106    0.30    0.00    0.09    1.95    0.00    0.00   84.37    0.48    0.71    2.12    0.00    0.00    0.00    0.00    0.00     0.00    0.00    0.00    0.00
  107    0.00    0.00    0.07    1.96    0.00    0.00   80.68    3.77    6.14    2.09    0.00    0.00    0.00    0.00    0.00     0.00    0.00    0.00    0.00
  108    0.00    0.00    0.07    1.96    0.00    0.00   78.32    2.43    5.09    2.08    0.00    0.00    0.00    0.00    0.00     0.00    0.00    0.00    0.00
  109    0.50    0.00    0.06    1.95    0.00    0.00   78.20    0.64    1.27    2.07    0.00    0.00    0.00    0.00    0.00     0.00    0.00    0.00    0.00
  110    0.80    0.00    0.05    1.95    0.00    0.00   77.68    1.37    2.16    2.05    0.00    0.00    0.00    0.00    0.00     0.00    0.00    0.00    0.00
  111    0.00    0.00    0.05    1.94    0.00    0.00   76.10    1.64    3.18    2.04    0.00    0.00    0.00    0.00    0.00     0.00    0.00    0.00    0.00
  112    2.00    0.01    0.05    1.93    0.01    0.00   77.28    0.80    0.93    2.04    0.00    0.00    0.00    0.00    0.00     0.00    0.00    0.00    0.00
  113    0.00    0.00    0.04    1.92    0.00    0.00   75.63    1.69    2.62    2.01    0.00    0.00    0.00    0.00    0.00     0.00    0.00    0.00    0.00
  114    0.00    0.00    0.04    1.90    0.00    0.00   74.39    1.30    2.70    2.00    0.00    0.00    0.00    0.00    0.00     0.00    0.00    0.00    0.00
  115   26.70    1.59    0.14    1.90   12.09    0.00   85.47    0.83    0.87    3.60    0.03    0.01    0.00    0.33    0.00     0.01    0.00    0.00    0.00
  116    0.50    0.00    0.10    1.90    0.01    0.00   85.30    0.68    0.72    2.14    0.00    0.00    0.00    0.00    0.00     0.00    0.00    0.00    0.00
  117    0.00    0.00    0.08    1.90    0.00    0.00   82.97    2.40    3.05    2.05    0.00    0.00    0.00    0.00    0.00     0.00    0.00    0.00    0.00
  118   10.20    0.26    0.12    1.90    6.12    0.00   85.47    0.91    0.97    2.32    0.00    0.00    0.00    0.19    0.00     0.00    0.00    0.00    0.00
  119    6.60    0.12    0.13    1.90    5.21    0.00   85.78    0.66    0.69    2.22    0.00    0.00    0.00    0.15    0.00     0.00    0.00    0.00    0.00
  120    0.30    0.00    0.10    1.91    0.01    0.00   84.76    1.34    1.42    2.08    0.00    0.00    0.00    0.00    0.00     0.00    0.00    0.00    0.00
    4   95.10    3.38    3.03   55.72   44.21    0.00   84.76   43.49   70.39   63.70    0.03    0.03    0.01    1.20    0.00     0.02    0.00    0.01    0.00
  121    0.00    0.00    0.08    1.91    0.00    0.00   81.45    3.38    5.10    2.05    0.00    0.00    0.00    0.00    0.00     0.00    0.00    0.00    0.00
  122   18.30    0.89    0.16    1.92   11.60    0.00   84.75    1.71    1.79    2.98    0.02    0.00    0.00    0.30    0.00     0.00    0.00    0.00    0.00
  123    0.00    0.00    0.12    1.93    0.01    0.00   82.32    2.50    3.92    2.15    0.00    0.00    0.00    0.00    0.00     0.00    0.00    0.00    0.00
  124    0.00    0.00    0.10    1.94    0.00    0.00   79.94    2.44    4.62    2.10    0.00    0.00    0.00    0.00    0.00     0.00    0.00    0.00    0.00
  125    0.00    0.00    0.08    1.94    0.00    0.00   77.64    2.38    5.26    2.08    0.00    0.00    0.00    0.00    0.00     0.00    0.00    0.00    0.00
  126    0.00    0.00    0.07    1.94    0.00    0.00   75.79    1.93    4.63    2.07    0.00    0.00    0.00    0.00    0.00     0.00    0.00    0.00    0.00
  127    0.00    0.00    0.07    1.93    0.00    0.00   73.89    1.99    5.05    2.06    0.00    0.00    0.00    0.00    0.00     0.00    0.00    0.00    0.00
  128    0.00    0.00    0.06    1.93    0.00    0.00   71.79    2.17    5.85    2.05    0.00    0.00    0.00    0.00    0.00     0.00    0.00    0.00    0.00
  129    3.30    0.03    0.06    1.92    0.01    0.00   74.04    0.96    1.13    2.06    0.00    0.00    0.00    0.00    0.00     0.00    0.00    0.00    0.00
  130    1.50    0.00    0.06    1.91    0.01    0.00   72.93    2.61    3.04    2.03    0.00    0.00    0.00    0.00    0.00     0.00    0.00    0.00    0.00
  131    0.00    0.00    0.05    1.90    0.00    0.00   70.47    2.56    5.62    2.01    0.00    0.00    0.00    0.00    0.08     0.00    0.00    0.00    0.00
  132    8.40    0.17    0.07    1.88    0.03    0.00   77.18    1.26    1.43    2.17    0.00    0.00    0.00    0.00    0.00     0.00    0.00    0.00    0.00
  133   40.90    4.88    0.22    1.90   25.06    0.00   85.26    1.11    1.15    6.87    0.11    0.00    0.00    0.53    0.00     0.02    0.00    0.00    0.00
  134   11.70    0.37    0.23    1.93    9.58    0.00   84.78    1.65    1.70    2.76    0.00    0.00    0.00    0.21    0.00     0.00    0.00    0.00    0.00
  135    0.00    0.00    0.17    1.95    0.02    0.00   82.34    2.49    3.69    2.23    0.00    0.00    0.00    0.00    0.00     0.00    0.00    0.00    0.00
  136    0.00    0.00    0.14    1.97    0.01    0.00   79.84    2.57    4.45    2.18    0.00    0.00    0.00    0.00    0.05     0.00    0.00    0.00    0.00
  137    0.00    0.00    0.12    1.99    0.00    0.00   77.23    2.69    5.29    2.17    0.00    0.00    0.00    0.00    0.14     0.00    0.00    0.00    0.00
  138   18.30    0.78    0.17    2.01    7.65    0.00   85.73    0.64    0.66    2.98    0.01    0.00    0.00    0.14    0.00     0.00    0.00    0.00    0.00
  139    0.00    0.00    0.14    2.02    0.01    0.00   83.05    2.73    3.28    2.27    0.00    0.00    0.00    0.00    0.00     0.00    0.00    0.00    0.00
  140    0.00    0.00    0.11    2.04    0.00    0.00   80.37    2.75    4.67    2.22    0.00    0.00    0.00    0.00    0.00     0.00    0.00    0.00    0.00
  141    0.00    0.00    0.10    2.04    0.00    0.00   78.15    2.29    4.46    2.21    0.00    0.00    0.00    0.00    0.00     0.00    0.00    0.00    0.00
  142    0.00    0.00    0.09    2.05    0.00    0.00   75.59    2.64    5.57    2.21    0.00    0.00    0.00    0.00    0.00     0.00    0.00    0.00    0.00
  143    0.00    0.00    0.08    2.05    0.00    0.00   73.72    1.95    4.30    2.20    0.00    0.00    0.00    0.00    0.11     0.00    0.00    0.00    0.00
  144    0.00    0.00    0.07    2.05    0.00    0.00   70.55    3.26    7.76    2.19    0.00    0.00    0.00    0.00    0.22     0.00    0.00    0.00    0.00
  145    0.00    0.00    0.06    2.04    0.00    0.00   69.15    1.47    3.73    2.18    0.00    0.00    0.00    0.00    0.01     0.00    0.00    0.00    0.00
  146    1.00    0.00    0.06    2.04    0.00    0.00   69.07    1.09    1.98    2.16    0.00    0.00    0.00    0.00    0.10     0.00    0.00    0.00    0.00
  147    0.30    0.00    0.05    2.03    0.00    0.00   67.80    1.62    3.16    2.15    0.00    0.00    0.00    0.00    0.12     0.00    0.00    0.00    0.00
  148    0.00    0.00    0.05    2.01    0.00    0.00   64.56    3.34    8.08    2.13    0.00    0.00    0.00    0.00    0.13     0.00    0.00    0.00    0.00
  149    0.00    0.00    0.05    2.00    0.00    0.00   62.70    1.94    5.11    2.12    0.00    0.00    0.00    0.00    0.29     0.00    0.00    0.00    0.00
  150    6.60    0.11    0.06    1.98    0.03    0.00   67.17    1.86    2.31    2.22    0.00    0.00    0.00    0.01    0.28     0.00    0.00    0.00    0.00
  151   16.30    0.51    0.10    1.97    0.07    0.00   81.55    0.80    0.84    2.62    0.00    0.00    0.00    0.01    0.13     0.00    0.00    0.00    0.00
    5  126.60    7.74    3.04   61.12   54.11    0.00   81.55   64.78  119.63   73.89    0.13    0.02    0.01    1.19    1.66     0.04    0.01    0.01    0.00
  152    0.30    0.00    0.08    1.95    0.00    0.00   80.12    1.77    1.99    2.12    0.00    0.00    0.00    0.00    0.26     0.00    0.00    0.00    0.00
  153    2.00    0.00    0.07    1.93    0.01    0.00   81.04    1.02    1.07    2.07    0.00    0.00    0.00    0.00    0.12     0.00    0.00    0.00    0.00
  154    0.00    0.00    0.06    1.90    0.00    0.00   77.54    3.58    5.07    2.03    0.00    0.00    0.00    0.00    0.01     0.00    0.00    0.00    0.00
  155    0.00    0.00    0.05    1.88    0.00    0.00   75.07    2.54    4.92    2.00    0.00    0.00    0.00    0.00    0.00     0.00    0.00    0.00    0.00
  156   11.70    0.31    0.08    1.86    0.40    0.00   83.86    1.86    1.89    2.30    0.00    0.00    0.00    0.00    0.28     0.00    0.00    0.00    0.00
  157   12.40    0.40    0.12    1.85    9.12    0.00   84.54    1.65    1.68    2.43    0.00    0.00    0.00    0.01    0.22     0.00    0.00    0.00    0.00
  158    9.90    0.25    0.14    1.84    7.47    0.00   85.41    0.87    0.89    2.32    0.00    0.00    0.00    0.01    0.00     0.00    0.00    0.00    0.00
  159    0.00    0.00    0.11    1.84    0.01    0.00   82.12    3.37    4.18    2.04    0.00    0.00    0.00    0.00    0.02     0.00    0.00    0.00    0.00
  160    0.50    0.00    0.09    1.83    0.00    0.00   81.28    1.37    2.12    1.99    0.00    0.00    0.00    0.00    0.11     0.00    0.00    0.00    0.00
  161    0.00    0.00    0.08    1.82    0.00    0.00   77.99    3.40    5.60    1.97    0.00    0.00    0.00    0.00    0.11     0.00    0.00    0.00    0.00
  162   15.70    0.56    0.13    1.82    6.29    0.00   84.82    1.43    1.46    2.55    0.00    0.13    0.00    0.46    0.13     0.00    0.00    0.00    0.00
  163   25.70    2.39    0.23    1.84   20.54    0.00   84.87    1.52    1.55    4.46    0.02    0.04    0.00    1.48    0.00     0.01    0.00    0.00    0.00
  164    0.00    0.00    0.17    1.86    0.02    0.00   80.75    4.20    5.84    2.20    0.00    0.00    0.00    0.00    0.91     0.00    0.00    0.00    0.00
  165    0.50    0.00    0.14    1.87    0.01    0.00   80.55    0.72    1.20    2.09    0.00    0.00    0.00    0.00    0.40     0.00    0.00    0.00    0.00
  166   18.30    0.86    0.20    1.90   10.84    0.00   85.77    0.58    0.59    2.99    0.01    0.01    0.00    0.58    0.00     0.00    0.00    0.00    0.00
  167    1.30    0.00    0.16    1.92    0.68    0.00   85.59    0.77    0.78    2.20    0.00    0.00    0.00    0.04    0.00     0.00    0.00    0.00    0.00
  168    1.00    0.00    0.13    1.94    0.21    0.00   85.57    0.79    0.80    2.15    0.00    0.00    0.00    0.01    0.21     0.00    0.00    0.00    0.00
  169    0.00    0.00    0.11    1.96    0.00    0.00   80.90    4.77    6.27    2.14    0.00    0.00    0.00    0.00    0.81     0.00    0.00    0.00    0.00
  170    0.00    0.00    0.10    1.97    0.00    0.00   77.28    3.69    6.48    2.14    0.00    0.00    0.00    0.00    0.83     0.00    0.00    0.00    0.00
  171    0.30    0.00    0.09    1.97    0.00    0.00   75.66    1.98    3.55    2.14    0.00    0.00    0.00    0.00    0.70     0.00    0.00    0.00    0.00
  172    0.00    0.00    0.08    1.97    0.00    0.00   72.92    2.85    5.49    2.13    0.00    0.00    0.00    0.00    0.67     0.00    0.00    0.00    0.00
  173   26.70    1.50    0.17    1.99   10.84    0.00   83.78    2.45    2.47    3.66    0.03    0.17    0.00    0.61    0.35     0.01    0.00    0.00    0.00
  174    4.60    0.06    0.15    2.00    1.92    0.00   84.09    2.20    2.24    2.35    0.00    0.01    0.00    0.13    0.88     0.00    0.00    0.00    0.00
  175    0.00    0.00    0.12    2.01    0.00    0.00   79.23    4.97    7.36    2.22    0.00    0.00    0.00    0.00    0.68     0.00    0.00    0.00    0.00
  176    0.00    0.00    0.10    2.02    0.00    0.00   75.61    3.73    6.62    2.20    0.00    0.00    0.00    0.00    0.36     0.00    0.00    0.00    0.00
  177    0.00    0.00    0.09    2.02    0.00    0.00   72.32    3.38    5.81    2.19    0.00    0.00    0.00    0.00    0.17     0.00    0.00    0.00    0.00
  178    9.40    0.20    0.10    2.02    0.04    0.00   79.53    1.69    1.78    2.39    0.00    0.04    0.00    0.00    0.31     0.00    0.00    0.00    0.00
  179    6.90    0.12    0.11    2.02    0.31    0.00   84.76    1.03    1.05    2.33    0.00    0.01    0.00    0.06    0.51     0.00    0.00    0.00    0.00
  180    0.00    0.00    0.09    2.01    0.00    0.00   80.05    4.80    5.88    2.19    0.00    0.00    0.00    0.00    1.67     0.00    0.00    0.00    0.00
  181    0.00    0.00    0.08    2.00    0.00    0.00   76.99    3.17    4.89    2.16    0.00    0.00    0.00    0.00    0.95     0.00    0.00    0.00    0.00
    6  147.20    6.66    3.41   57.81   68.72    0.00   76.99   72.16  101.54   70.15    0.07    0.40    0.01    3.41   11.67     0.03    0.00    0.01    0.00
  182    0.00    0.00    0.07    1.99    0.00    0.00   73.31    3.79    6.26    2.14    0.00    0.00    0.00    0.00    0.22     0.00    0.00    0.00    0.00
  183    0.00    0.00    0.06    1.98    0.00    0.00   68.30    5.12    8.74    2.12    0.00    0.00    0.00    0.00    0.25     0.00    0.00    0.00    0.00
  184    0.00    0.00    0.06    1.96    0.00    0.00   64.57    3.84    6.59    2.10    0.00    0.00    0.00    0.00    0.13     0.00    0.00    0.00    0.00
  185    0.00    0.00    0.05    1.95    0.00    0.00   60.47    4.24    8.03    2.08    0.00    0.00    0.00    0.00    0.20     0.00    0.00    0.00    0.00
  186    0.00    0.00    0.05    1.93    0.00    0.00   58.13    2.44    5.34    2.06    0.00    0.00    0.00    0.00    0.29     0.00    0.00    0.00    0.00
  187    0.00    0.00    0.04    1.91    0.00    0.00   54.61    3.63    7.58    2.03    0.00    0.00    0.00    0.00    0.28     0.00    0.00    0.00    0.00
  188    0.00    0.00    0.04    1.89    0.00    0.00   51.76    2.96    5.66    2.01    0.00    0.00    0.00    0.00    0.26     0.00    0.00    0.00    0.00
  189    0.00    0.00    0.04    1.86    0.00    0.00   48.49    3.38    7.26    1.98    0.00    0.00    0.00    0.00    0.26     0.00    0.00    0.00    0.00
  190    5.80    0.07    0.05    1.84    0.02    0.00   50.68    3.45    4.83    2.04    0.00    0.00    0.00    0.00    0.19     0.00    0.00    0.00    0.00
  191    0.30    0.00    0.04    1.82    0.00    0.00   49.97    1.08    2.66    1.94    0.00    0.00    0.00    0.00    0.30     0.00    0.00    0.00    0.00
  192    0.00    0.00    0.04    1.79    0.00    0.00   47.72    2.33    4.75    1.91    0.00    0.00    0.00    0.00    0.14     0.00    0.00    0.00    0.00
  193    0.00    0.00    0.03    1.77    0.00    0.00   45.22    2.59    5.04    1.88    0.00    0.00    0.00    0.00    0.03     0.00    0.00    0.00    0.00
  194    0.00    0.00    0.03    1.74    0.00    0.00   42.32    3.01    6.15    1.85    0.00    0.00    0.00    0.00    0.11     0.00    0.00    0.00    0.00
  195    0.00    0.00    0.03    1.71    0.00    0.00   39.77    2.66    5.65    1.82    0.00    0.00    0.00    0.00    0.16     0.00    0.00    0.00    0.00
  196    1.80    0.00    0.03    1.69    0.01    0.00   40.06    1.52    2.10    1.80    0.00    0.00    0.00    0.00    0.21     0.00    0.00    0.00    0.00
  197    0.00    0.00    0.03    1.66    0.00    0.00   36.32    3.85    7.48    1.76    0.00    0.00    0.00    0.00    0.07     0.00    0.00    0.00    0.00
  198    0.00    0.00    0.02    1.63    0.00    0.00   33.84    2.57    5.22    1.73    0.00    0.00    0.00    0.00    0.16     0.00    0.00    0.00    0.00
  199    0.00    0.00    0.02    1.60    0.00    0.00   30.62    3.31    7.03    1.70    0.00    0.00    0.00    0.00    0.08     0.00    0.00    0.00    0.00
  200    1.50    0.00    0.02    1.57    0.01    0.00   30.97    1.18    2.24    1.67    0.00    0.00    0.00    0.00    0.13     0.00    0.00    0.00    0.00
  201    0.30    0.00    0.02    1.54    0.00    0.00   30.53    0.79    2.01    1.64    0.00    0.00    0.00    0.00    0.06     0.00    0.00    0.00    0.00
  202    0.00    0.00    0.02    1.51    0.00    0.00   27.87    2.77    4.86    1.61    0.00    0.00    0.00    0.00    0.03     0.00    0.00    0.00    0.00
  203    0.00    0.00    0.02    1.49    0.00    0.00   25.68    2.29    6.49    1.58    0.00    0.00    0.00    0.00    0.06     0.00    0.00    0.00    0.00
  204   13.20    0.28    0.05    1.46    0.05    0.00   36.83    1.32    1.71    1.85    0.00    0.00    0.00    0.00    0.02     0.00    0.00    0.00    0.00
  205    0.30    0.00    0.04    1.43    0.00    0.00   36.58    0.57    1.00    1.56    0.00    0.00    0.00    0.00    0.03     0.00    0.00    0.00    0.00
  206    0.00    0.00    0.03    1.40    0.00    0.00   33.21    3.45    6.05    1.51    0.00    0.00    0.00    0.00    0.03     0.00    0.00    0.00    0.00
  207    0.30    0.00    0.03    1.37    0.00    0.00   32.84    0.70    1.39    1.48    0.00    0.00    0.00    0.00    0.06     0.00    0.00    0.00    0.00
  208    0.00    0.00    0.03    1.34    0.00    0.00   30.15    2.77    5.90    1.44    0.00    0.00    0.00    0.00    0.02     0.00    0.00    0.00    0.00
  209    1.30    0.00    0.02    1.31    0.00    0.00   30.66    0.81    1.70    1.41    0.00    0.00    0.00    0.00    0.03     0.00    0.00    0.00    0.00
  210    0.00    0.00    0.02    1.29    0.00    0.00   27.65    3.12    6.64    1.38    0.00    0.00    0.00    0.00    0.02     0.00    0.00    0.00    0.00
  211    0.50    0.00    0.02    1.26    0.00    0.00   27.51    0.68    2.03    1.35    0.00    0.00    0.00    0.00    0.02     0.00    0.00    0.00    0.00
  212    0.00    0.00    0.02    1.23    0.00    0.00   25.11    2.52    5.96    1.32    0.00    0.00    0.00    0.00    0.02     0.00    0.00    0.00    0.00
    7   25.30    0.36    1.08   50.91    0.10    0.00   25.11   78.75  154.34   54.77    0.00    0.00    0.01    0.00    3.89     0.00    0.00    0.00    0.00
  213    0.30    0.00    0.02    1.20    0.00    0.00   24.98    0.43    0.63    1.29    0.00    0.00    0.00    0.00    0.02     0.00    0.00    0.00    0.00
  214    0.30    0.00    0.02    1.18    0.00    0.00   24.84    0.47    1.58    1.27    0.00    0.00    0.00    0.00    0.02     0.00    0.00    0.00    0.00
  215    0.00    0.00    0.01    1.15    0.00    0.00   22.44    2.50    5.94    1.24    0.00    0.00    0.00    0.00    0.02     0.00    0.00    0.00    0.00
  216    0.00    0.00    0.01    1.12    0.00    0.00   21.03    1.52    4.96    1.21    0.00    0.00    0.00    0.00    0.02     0.00    0.00    0.00    0.00
  217    0.80    0.00    0.01    1.10    0.00    0.00   20.97    0.91    2.83    1.18    0.00    0.00    0.00    0.00    0.02     0.00    0.00    0.00    0.00
  218    0.00    0.00    0.01    1.07    0.00    0.00   19.40    1.66    4.88    1.16    0.00    0.00    0.00    0.00    0.02     0.00    0.00    0.00    0.00
  219    0.00    0.00    0.01    1.05    0.00    0.00   17.96    1.53    4.64    1.13    0.00    0.00    0.00    0.00    0.02     0.00    0.00    0.00    0.00
  220    0.00    0.00    0.01    1.02    0.00    0.00   16.85    1.20    4.27    1.10    0.00    0.00    0.00    0.00    0.02     0.00    0.00    0.00    0.00
  221    0.00    0.00    0.01    1.00    0.00    0.00   15.78    1.15    5.74    1.08    0.00    0.00    0.00    0.00    0.02     0.00    0.00    0.00    0.00
  222    0.00    0.00    0.01    0.97    0.00    0.00   15.30    0.56    3.67    1.05    0.00    0.00    0.00    0.00    0.02     0.00    0.00    0.00    0.00
  223    0.00    0.00    0.01    0.95    0.00    0.00   14.58    0.82    4.55    1.03    0.00    0.00    0.00    0.00    0.02     0.00    0.00    0.00    0.00
  224    0.00    0.00    0.01    0.92    0.00    0.00   14.02    0.65    4.68    1.00    0.00    0.00    0.00    0.00    0.02     0.00    0.00    0.00    0.00
  225   14.20    0.31    0.05    0.90    0.06    0.00   26.42    0.98    1.31    1.31    0.00    0.00    0.00    0.00    0.02     0.00    0.00    0.00    0.00
  226    0.00    0.00    0.03    0.87    0.00    0.00   21.75    4.77    7.38    0.99    0.00    0.00    0.00    0.00    0.02     0.00    0.00    0.00    0.00
  227    0.00    0.00    0.03    0.85    0.00    0.00   18.99    2.85    6.01    0.95    0.00    0.00    0.00    0.00    0.02     0.00    0.00    0.00    0.00
  228    0.30    0.00    0.02    0.83    0.00    0.00   19.01    0.31    1.34    0.92    0.00    0.00    0.00    0.00    0.02     0.00    0.00    0.00    0.00
  229    0.00    0.00    0.02    0.81    0.00    0.00   17.17    1.93    6.22    0.89    0.00    0.00    0.00    0.00    0.02     0.00    0.00    0.00    0.00
  230    0.00    0.00    0.02    0.78    0.00    0.00   15.69    1.58    7.95    0.86    0.00    0.00    0.00    0.00    0.02     0.00    0.00    0.00    0.00
  231    0.00    0.00    0.01    0.75    0.00    0.00   15.09    0.70    4.86    0.83    0.00    0.00    0.00    0.00    0.02     0.00    0.00    0.00    0.00
  232    1.30    0.00    0.01    0.72    0.00    0.00   15.87    0.52    1.49    0.80    0.00    0.00    0.00    0.00    0.02     0.00    0.00    0.00    0.00
  233    0.30    0.00    0.01    0.69    0.00    0.00   15.79    0.41    1.25    0.77    0.00    0.00    0.00    0.00    0.02     0.00    0.00    0.00    0.00
  234    6.10    0.08    0.03    0.67    0.02    0.00   20.66    0.97    1.63    0.83    0.00    0.00    0.00    0.00    0.02     0.00    0.00    0.00    0.00
  235    0.00    0.00    0.02    0.63    0.00    0.00   19.06    1.69    4.06    0.72    0.00    0.00    0.00    0.00    0.04     0.00    0.00    0.00    0.00
  236    3.00    0.02    0.02    0.59    0.01    0.00   21.23    0.75    1.23    0.69    0.00    0.00    0.00    0.00    0.08     0.00    0.00    0.00    0.00
  237    0.00    0.00    0.02    0.54    0.00    0.00   18.55    2.78    5.81    0.62    0.00    0.00    0.00    0.00    0.02     0.00    0.00    0.00    0.00
  238    0.00    0.00    0.02    0.51    0.00    0.00   17.33    1.30    4.45    0.59    0.00    0.00    0.00    0.00    0.08     0.00    0.00    0.00    0.00
  239    0.00    0.00    0.01    0.33    0.00    0.00   16.08    1.34    6.10    0.41    0.00    0.00    0.00    0.00    0.05     0.00    0.00    0.00    0.00
  240    0.00    0.00    0.01    0.19    0.00    0.00   15.51    0.65    4.11    0.26    0.00    0.00    0.00    0.00    0.04     0.00    0.00    0.00    0.00
  241   19.10    0.49    0.07    0.19    0.08    0.00   32.15    1.28    1.72    0.78    0.00    0.00    0.00    0.00    0.04     0.00    0.00    0.00    0.00
  242    1.30    0.00    0.05    0.20    0.00    0.00   32.46    0.99    1.47    0.33    0.00    0.00    0.00    0.00    0.03     0.00    0.00    0.00    0.00
  243    0.00    0.00    0.04    0.20    0.00    0.00   30.45    2.10    3.98    0.30    0.00    0.00    0.00    0.00    0.05     0.00    0.00    0.00    0.00
    8   47.00    0.89    0.64   23.99    0.19    0.00   30.45   41.34  120.76   27.59    0.00    0.00    0.00    0.00    0.92     0.01    0.00    0.00    0.00
  244    0.00    0.00    0.03    0.20    0.00    0.00   29.14    1.36    2.68    0.29    0.00    0.00    0.00    0.00    0.01     0.00    0.00    0.00    0.00
  245    0.30    0.00    0.03    0.20    0.00    0.00   29.05    0.43    1.25    0.28    0.00    0.00    0.00    0.00    0.04     0.00    0.00    0.00    0.00
  246    2.30    0.01    0.03    0.19    0.01    0.00   29.45    1.90    2.68    0.28    0.00    0.00    0.00    0.00    0.04     0.00    0.00    0.00    0.00
  247    2.00    0.00    0.02    0.19    0.01    0.00   30.73    0.68    0.99    0.28    0.00    0.00    0.00    0.00    0.09     0.00    0.00    0.00    0.00
  248    0.00    0.00    0.02    0.17    0.00    0.00   27.62    3.17    5.24    0.25    0.00    0.00    0.00    0.00    0.04     0.00    0.00    0.00    0.00
  249    0.00    0.00    0.02    0.16    0.00    0.00   25.89    1.79    4.13    0.23    0.00    0.00    0.00    0.00    0.06     0.00    0.00    0.00    0.00
  250    0.00    0.00    0.02    0.14    0.00    0.00   24.19    1.77    3.69    0.21    0.00    0.00    0.00    0.00    0.06     0.00    0.00    0.00    0.00
  251    0.00    0.00    0.01    0.12    0.00    0.00   22.68    1.57    3.98    0.19    0.00    0.00    0.00    0.00    0.06     0.00    0.00    0.00    0.00
  252    0.00    0.00    0.01    0.11    0.00    0.00   20.92    1.84    4.49    0.17    0.00    0.00    0.00    0.00    0.07     0.00    0.00    0.00    0.00
  253    0.00    0.00    0.01    0.11    0.00    0.00   19.59    1.41    3.96    0.18    0.00    0.00    0.00    0.00    0.07     0.00    0.00    0.00    0.00
  254    0.00    0.00    0.01    0.11    0.00    0.00   18.78    0.88    3.49    0.18    0.00    0.00    0.00    0.00    0.06     0.00    0.00    0.00    0.00
  255    0.00    0.00    0.01    0.12    0.00    0.00   18.15    0.70    2.96    0.18    0.00    0.00    0.00    0.00    0.05     0.00    0.00    0.00    0.00
  256    0.00    0.00    0.01    0.10    0.00    0.00   17.30    0.90    3.86    0.16    0.00    0.00    0.00    0.00    0.02     0.00    0.00    0.00    0.00
  257    0.00    0.00    0.01    0.10    0.00    0.00   16.75    0.63    3.04    0.16    0.00    0.00    0.00    0.00    0.03     0.00    0.00    0.00    0.00
  258    3.30    0.02    0.01    0.10    0.01    0.00   18.65    1.34    2.42    0.19    0.00    0.00    0.00    0.00    0.03     0.00    0.00    0.00    0.00
  259   21.60    0.59    0.08    0.11    0.09    0.00   37.71    1.16    1.62    0.79    0.00    0.00    0.00    0.00    0.03     0.00    0.00    0.00    0.00
  260    0.00    0.00    0.05    0.11    0.00    0.00   36.13    1.64    3.01    0.25    0.00    0.00    0.00    0.00    0.02     0.00    0.00    0.00    0.00
  261    0.00    0.00    0.04    0.08    0.00    0.00   34.10    2.10    4.18    0.17    0.00    0.00    0.00    0.00    0.02     0.00    0.00    0.00    0.00
  262    0.30    0.00    0.03    0.08    0.00    0.00   34.01    0.43    1.20    0.16    0.00    0.00    0.00    0.00    0.02     0.00    0.00    0.00    0.00
  263    0.00    0.00    0.03    0.08    0.00    0.00   32.47    1.61    3.61    0.16    0.00    0.00    0.00    0.00    0.02     0.00    0.00    0.00    0.00
  264    0.00    0.00    0.02    0.07    0.00    0.00   30.48    2.06    4.05    0.14    0.00    0.00    0.00    0.00    0.02     0.00    0.00    0.00    0.00
  265    0.00    0.00    0.02    0.06    0.00    0.00   28.81    1.76    3.56    0.13    0.00    0.00    0.00    0.00    0.02     0.00    0.00    0.00    0.00
  266   19.60    0.52    0.08    0.07    0.08    0.00   45.90    1.29    1.78    0.68    0.00    0.00    0.00    0.00    0.02     0.00    0.00    0.00    0.00
  267    0.00    0.00    0.05    0.07    0.00    0.00   43.48    2.48    3.88    0.20    0.00    0.00    0.00    0.00    0.02     0.00    0.00    0.00    0.00
  268    0.30    0.00    0.04    0.07    0.00    0.00   43.18    0.63    1.33    0.16    0.00    0.00    0.00    0.00    0.02     0.00    0.00    0.00    0.00
  269    1.00    0.00    0.03    0.07    0.00    0.00   43.39    0.80    1.33    0.15    0.00    0.00    0.00    0.00    0.02     0.00    0.00    0.00    0.00
  270   15.20    0.38    0.08    0.07    0.29    0.00   56.89    0.51    0.66    0.56    0.00    0.00    0.00    0.00    0.02     0.00    0.00    0.00    0.00
  271    4.10    0.04    0.07    0.08    0.16    0.00   60.02    0.66    0.87    0.25    0.00    0.00    0.00    0.00    0.02     0.00    0.00    0.00    0.00
  272    0.00    0.00    0.06    0.08    0.00    0.00   58.49    1.58    2.28    0.18    0.00    0.00    0.00    0.00    0.00     0.00    0.00    0.00    0.00
  273    0.50    0.00    0.04    0.08    0.00    0.00   58.68    0.32    0.55    0.17    0.00    0.00    0.00    0.00    0.03     0.00    0.00    0.00    0.00
    9   70.50    1.56    0.99    3.28    0.66    0.00   58.68   39.40   82.78    7.41    0.01    0.01    0.00    0.00    1.01     0.01    0.00    0.00    0.00
  274    0.00    0.00    0.04    0.08    0.00    0.00   57.37    1.36    1.80    0.16    0.00    0.00    0.00    0.00    0.02     0.00    0.00    0.00    0.00
  275    0.00    0.00    0.03    0.08    0.00    0.00   54.76    2.67    3.55    0.16    0.00    0.00    0.00    0.00    0.02     0.00    0.00    0.00    0.00
  276    0.50    0.00    0.03    0.08    0.00    0.00   54.95    0.33    0.80    0.16    0.00    0.00    0.00    0.00    0.01     0.00    0.00    0.00    0.00
  277    4.30    0.04    0.04    0.08    0.02    0.00   58.22    0.85    1.09    0.20    0.00    0.00    0.00    0.00    0.00     0.00    0.00    0.00    0.00
  278    1.00    0.00    0.03    0.08    0.00    0.00   58.60    0.62    0.85    0.15    0.00    0.00    0.00    0.00    0.01     0.00    0.00    0.00    0.00
  279    0.00    0.00    0.03    0.04    0.00    0.00   57.00    1.63    2.68    0.11    0.00    0.00    0.00    0.00    0.00     0.00    0.00    0.00    0.00
  280    0.30    0.00    0.02    0.04    0.00    0.00   57.25    0.05    0.12    0.11    0.00    0.00    0.00    0.00    0.00     0.00    0.00    0.00    0.00
  281    0.00    0.00    0.02    0.05    0.00    0.00   56.22    1.07    2.04    0.11    0.00    0.00    0.00    0.00    0.00     0.00    0.00    0.00    0.00
  282    0.00    0.00    0.02    0.05    0.00    0.00   55.41    0.83    1.76    0.11    0.00    0.00    0.00    0.00    0.00     0.00    0.00    0.00    0.00
  283    0.00    0.00    0.02    0.05    0.00    0.00   54.20    1.25    3.06    0.11    0.00    0.00    0.00    0.00    0.00     0.00    0.00    0.00    0.00
  284    1.00    0.00    0.02    0.05    0.00    0.00   54.92    0.28    0.58    0.11    0.00    0.00    0.00    0.00    0.00     0.00    0.00    0.00    0.00
  285    4.80    0.05    0.03    0.05    0.02    0.00   59.08    0.44    0.61    0.17    0.00    0.00    0.00    0.00    0.00     0.00    0.00    0.00    0.00
  286   16.00    0.50    0.08    0.05    0.84    0.00   72.96    0.20    0.25    0.65    0.00    0.00    0.00    0.01    0.00     0.00    0.00    0.00    0.00
  287    0.00    0.00    0.06    0.05    0.00    0.00   71.61    1.39    1.72    0.18    0.00    0.00    0.00    0.00    0.00     0.00    0.00    0.00    0.00
  288    0.00    0.00    0.04    0.06    0.00    0.00   70.42    1.21    2.03    0.14    0.00    0.00    0.00    0.00    0.00     0.00    0.00    0.00    0.00
  289   29.50    1.91    0.15    0.08   12.96    0.00   83.15    0.71    0.75    2.09    0.01    0.00    0.00    0.07    0.00     0.01    0.00    0.00    0.00
  290    0.50    0.00    0.11    0.09    0.00    0.00   83.51    0.14    0.16    0.32    0.00    0.00    0.00    0.00    0.00     0.00    0.00    0.00    0.00
  291    0.00    0.00    0.08    0.11    0.00    0.00   81.44    2.11    2.25    0.24    0.00    0.00    0.00    0.00    0.00     0.00    0.00    0.00    0.00
  292    0.50    0.00    0.07    0.13    0.00    0.00   81.48    0.46    0.60    0.23    0.00    0.00    0.00    0.00    0.00     0.00    0.00    0.00    0.00
  293    0.00    0.00    0.06    0.14    0.00    0.00   80.29    1.23    1.68    0.24    0.00    0.00    0.00    0.00    0.00     0.00    0.00    0.00    0.00
  294    0.00    0.00    0.05    0.15    0.00    0.00   79.07    1.25    1.97    0.24    0.00    0.00    0.00    0.00    0.00     0.00    0.00    0.00    0.00
  295    0.00    0.00    0.04    0.16    0.00    0.00   78.48    0.62    0.97    0.24    0.00    0.00    0.00    0.00    0.00     0.00    0.00    0.00    0.00
  296    8.40    0.16    0.07    0.18    2.37    0.00   83.20    0.86    0.90    0.43    0.00    0.00    0.00    0.02    0.00     0.00    0.00    0.00    0.00
  297    0.00    0.00    0.05    0.19    0.00    0.00   81.79    1.44    1.77    0.29    0.00    0.00    0.00    0.00    0.00     0.00    0.00    0.00    0.00
  298    0.00    0.00    0.04    0.20    0.00    0.00   80.91    0.91    1.36    0.28    0.00    0.00    0.00    0.00    0.00     0.00    0.00    0.00    0.00
  299   31.00    3.14    0.18    0.24   22.06    0.00   84.87    0.43    0.46    3.47    0.01    0.00    0.00    0.10    0.00     0.01    0.00    0.00    0.00
  300    0.00    0.00    0.13    0.28    0.00    0.00   83.33    1.58    1.78    0.57    0.00    0.00    0.00    0.00    0.00     0.00    0.00    0.00    0.00
  301    0.00    0.00    0.10    0.31    0.00    0.00   82.35    1.00    1.38    0.47    0.00    0.00    0.00    0.00    0.00     0.00    0.00    0.00    0.00
  302    0.00    0.00    0.09    0.34    0.00    0.00   81.63    0.75    1.15    0.47    0.00    0.00    0.00    0.00    0.00     0.00    0.00    0.00    0.00
  303    0.00    0.00    0.07    0.37    0.00    0.00   80.83    0.83    1.33    0.49    0.00    0.00    0.00    0.00    0.00     0.00    0.00    0.00    0.00
  304    0.00    0.00    0.06    0.40    0.00    0.00   80.13    0.73    1.23    0.50    0.00    0.00    0.00    0.00    0.00     0.00    0.00    0.00    0.00
   10   97.80    5.78    1.87    4.25   38.29    0.00   80.13   29.24   42.69   13.19    0.03    0.01    0.00    0.20    0.05     0.02    0.00    0.01    0.00
  305    0.00    0.00    0.06    0.42    0.00    0.00   79.27    0.88    1.46    0.52    0.00    0.00    0.00    0.00    0.00     0.00    0.00    0.00    0.00
  306    0.00    0.00    0.05    0.44    0.00    0.00   78.54    0.75    1.30    0.53    0.00    0.00    0.00    0.00    0.00     0.00    0.00    0.00    0.00
  307    0.00    0.00    0.05    0.46    0.00    0.00   77.91    0.64    1.15    0.55    0.00    0.00    0.00    0.00    0.00     0.00    0.00    0.00    0.00
  308    2.00    0.00    0.04    0.48    0.00    0.00   77.91    0.00    0.00    0.56    0.00    0.00    0.00    0.00    0.00     0.00    0.00    0.00    0.00
  309    0.00    0.00    0.04    0.49    0.00    0.00   77.75    0.47    0.63    0.57    0.00    0.00    0.00    0.00    0.00     0.00    0.00    0.00    0.00
  310   25.70    1.87    0.15    0.53   16.70    0.00   85.29    0.09    0.11    2.50    0.01    0.00    0.00    0.09    0.00     0.01    0.00    0.00    0.00
  311    0.00    0.00    0.11    0.56    0.00    0.00   83.51    1.80    1.88    0.79    0.00    0.00    0.00    0.00    0.00     0.00    0.00    0.00    0.00
  312    0.00    0.00    0.09    0.59    0.00    0.00   82.42    1.11    1.59    0.73    0.00    0.00    0.00    0.00    0.00     0.00    0.00    0.00    0.00
  313    0.00    0.00    0.07    0.61    0.00    0.00   81.41    1.04    1.57    0.73    0.00    0.00    0.00    0.00    0.00     0.00    0.00    0.00    0.00
  314    0.00    0.00    0.06    0.64    0.00    0.00   80.44    1.00    1.66    0.74    0.00    0.00    0.00    0.00    0.18     0.00    0.00    0.00    0.00
  315    4.30    0.04    0.07    0.66    0.05    0.00   83.63    0.90    0.93    0.80    0.00    0.00    0.00    0.00    0.01     0.00    0.00    0.00    0.00
  316   15.50    0.65    0.14    0.69   12.19    0.00   85.27    0.28    0.31    1.49    0.00    0.00    0.00    0.05    0.00     0.00    0.00    0.00    0.00
  317    8.60    0.18    0.15    0.74    7.57    0.00   85.07    0.63    0.65    1.13    0.00    0.00    0.00    0.03    0.00     0.00    0.00    0.00    0.00
  318    0.00    0.00    0.12    0.77    0.00    0.00   84.10    0.99    1.15    0.95    0.00    0.00    0.00    0.00    0.00     0.00    0.00    0.00    0.00
  319    0.00    0.00    0.10    0.81    0.00    0.00   82.94    1.19    1.58    0.95    0.00    0.00    0.00    0.00    0.00     0.00    0.00    0.00    0.00
  320    5.10    0.00    0.08    0.84    0.00    0.00   82.94    0.01    0.02    0.96    0.00    0.00    0.00    0.00    0.00     0.00    0.00    0.00    0.00
  321   33.30    0.00    0.07    0.86    0.00    0.00   82.94    0.01    0.02    0.98    0.00    0.00    0.00    0.00    0.00     0.00    0.00    0.00    0.00
  322    5.30    0.00    0.06    0.89    0.00    0.00   82.94    0.00    0.01    0.99    0.00    0.00    0.00    0.00    0.00     0.00    0.00    0.00    0.00
  323    0.50    0.00    0.06    0.91    0.00    0.00   82.94    0.01    0.01    1.01    0.00    0.00    0.00    0.00    0.00     0.00    0.00    0.00    0.00
  324    0.00    0.00    0.05    0.92    0.00    0.00   82.74    0.56    0.73    1.02    0.00    0.00    0.00    0.00    0.00     0.00    0.00    0.00    0.00
  325    0.50    0.00    0.05    0.94    0.00    0.00   83.14    0.30    0.44    1.03    0.00    0.00    0.00    0.00    0.00     0.00    0.00    0.00    0.00
  326    7.60    1.53    0.15    0.97   17.04    0.00   85.84    0.02    0.03    2.62    0.01    0.00    0.00    0.08    0.00     0.00    0.00    0.00    0.00
  327    1.00    0.00    0.12    1.01    0.93    0.00   85.86    0.02    0.02    1.24    0.00    0.00    0.00    0.00    0.00     0.00    0.00    0.00    0.00
  328    0.00    0.00    0.10    1.04    0.00    0.00   85.86    0.02    0.03    1.18    0.00    0.00    0.00    0.00    0.00     0.00    0.00    0.00    0.00
  329    1.30    0.00    0.09    1.06    1.20    0.00   85.89    0.02    0.02    1.20    0.00    0.00    0.00    0.01    0.00     0.00    0.00    0.00    0.00
  330    0.00    0.00    0.07    1.09    0.00    0.00   85.73    0.49    0.68    1.21    0.00    0.00    0.00    0.00    0.00     0.00    0.00    0.00    0.00
  331    3.80    0.00    0.06    1.11    0.00    0.00   85.73    0.01    0.01    1.22    0.00    0.00    0.00    0.00    0.00     0.00    0.00    0.00    0.00
  332    0.00    0.00    0.06    1.12    0.00    0.00   85.31    0.44    0.64    1.23    0.00    0.00    0.00    0.00    0.00     0.00    0.00    0.00    0.00
  333    0.00    0.00    0.05    1.14    0.00    0.00   84.91    0.42    0.70    1.23    0.00    0.00    0.00    0.00    0.00     0.00    0.00    0.00    0.00
  334    0.00    0.00    0.05    1.15    0.00    0.00   84.79    0.32    0.42    1.24    0.00    0.00    0.00    0.00    0.00     0.00    0.00    0.00    0.00
   11  114.50    4.27    2.42   23.90   55.69    0.00   84.79   14.44   19.76   31.89    0.02    0.01    0.00    0.27    0.19     0.02    0.00    0.01    0.00
  335    0.00    0.00    0.04    1.16    0.00    0.00   84.59    0.21    0.32    1.25    0.00    0.00    0.00    0.00    0.00     0.00    0.00    0.00    0.00
  336    0.30    0.00    0.04    1.16    0.00    0.00   84.59    0.01    0.01    1.25    0.00    0.00    0.00    0.00    0.00     0.00    0.00    0.00    0.00
  337    0.00    0.00    0.04    1.17    0.00    0.00   84.44    0.17    0.27    1.25    0.00    0.00    0.00    0.00    0.00     0.00    0.00    0.00    0.00
  338    0.00    0.00    0.03    1.17    0.00    0.00   84.26    0.19    0.34    1.25    0.00    0.00    0.00    0.00    0.00     0.00    0.00    0.00    0.00
  339    0.30    0.00    0.03    1.17    0.00    0.00   84.26    0.00    0.00    1.25    0.00    0.00    0.00    0.00    0.00     0.00    0.00    0.00    0.00
  340    0.30    0.00    0.03    1.17    0.00    0.00   84.26    0.00    0.01    1.24    0.00    0.00    0.00    0.00    0.00     0.00    0.00    0.00    0.00
  341    0.30    0.00    0.03    1.16    0.00    0.00   84.07    0.19    0.36    1.24    0.00    0.00    0.00    0.00    0.00     0.00    0.00    0.00    0.00
  342    0.00    0.00    0.03    1.16    0.00    0.00   83.52    0.57    1.07    1.23    0.00    0.00    0.00    0.00    0.00     0.00    0.00    0.00    0.00
  343    0.00    0.00    0.02    1.15    0.00    0.00   83.40    0.12    0.22    1.22    0.00    0.00    0.00    0.00    0.00     0.00    0.00    0.00    0.00
  344    0.00    0.00    0.02    1.14    0.00    0.00   83.15    0.27    0.51    1.21    0.00    0.00    0.00    0.00    0.00     0.00    0.00    0.00    0.00
  345    0.00    0.00    0.02    1.13    0.00    0.00   82.97    0.20    0.38    1.20    0.00    0.00    0.00    0.00    0.00     0.00    0.00    0.00    0.00
  346    6.90    0.00    0.02    1.13    0.00    0.00   82.97    0.01    0.01    1.19    0.00    0.00    0.00    0.00    0.00     0.00    0.00    0.00    0.00
  347    0.00    0.00    0.02    1.11    0.00    0.00   82.76    0.36    0.38    1.18    0.00    0.00    0.00    0.00    0.00     0.00    0.00    0.00    0.00
  348   39.90   10.30    0.22    1.15   32.55    0.00   86.01    0.04    0.05   11.33    0.05    0.01    0.00    0.19    0.00     0.01    0.00    0.00    0.00
  349    0.00    0.00    0.15    1.18    0.02    0.00   85.78    0.89    1.36    1.73    0.00    0.00    0.00    0.00    0.00     0.00    0.00    0.00    0.00
  350    0.50    0.00    0.12    1.21    0.01    0.00   85.77    0.01    0.02    1.40    0.00    0.00    0.00    0.00    0.00     0.00    0.00    0.00    0.00
  351    0.00    0.00    0.10    1.23    0.00    0.00   85.47    0.31    0.45    1.38    0.00    0.00    0.00    0.00    0.00     0.00    0.00    0.00    0.00
  352    0.00    0.00    0.08    1.25    0.00    0.00   84.65    0.83    1.35    1.38    0.00    0.00    0.00    0.00    0.00     0.00    0.00    0.00    0.00
  353    0.00    0.00    0.07    1.26    0.00    0.00   84.39    0.27    0.50    1.38    0.00    0.00    0.00    0.00    0.00     0.00    0.00    0.00    0.00
  354   27.40    2.79    0.20    1.31   21.55    0.00   86.13    0.01    0.02    4.22    0.01    0.00    0.00    0.12    0.00     0.01    0.00    0.00    0.00
  355    0.00    0.00    0.15    1.34    0.02    0.00   86.06    0.13    0.15    1.65    0.00    0.00    0.00    0.00    0.00     0.00    0.00    0.00    0.00
  356    0.00    0.00    0.12    1.38    0.01    0.00   85.90    0.70    1.09    1.56    0.00    0.00    0.00    0.00    0.00     0.00    0.00    0.00    0.00
  357    0.00    0.00    0.10    1.40    0.00    0.00   85.85    0.23    0.36    1.56    0.00    0.00    0.00    0.00    0.00     0.00    0.00    0.00    0.00
  358    0.00    0.00    0.09    1.43    0.00    0.00   85.58    0.29    0.43    1.57    0.00    0.00    0.00    0.00    0.00     0.00    0.00    0.00    0.00
  359    6.60    0.00    0.07    1.45    0.00    0.00   85.45    0.14    0.22    1.58    0.00    0.00    0.00    0.00    0.00     0.00    0.00    0.00    0.00
  360    1.00    0.00    0.07    1.46    0.00    0.00   85.37    0.09    0.13    1.59    0.00    0.00    0.00    0.00    0.00     0.00    0.00    0.00    0.00
  361    0.00    0.00    0.06    1.48    0.00    0.00   84.96    0.42    0.78    1.59    0.00    0.00    0.00    0.00    0.00     0.00    0.00    0.00    0.00
  362    0.00    0.00    0.05    1.49    0.00    0.00   84.80    0.18    0.28    1.60    0.00    0.00    0.00    0.00    0.00     0.00    0.00    0.00    0.00
  363    0.00    0.00    0.05    1.49    0.00    0.00   84.06    0.75    1.63    1.60    0.00    0.00    0.00    0.00    0.00     0.00    0.00    0.00    0.00
  364    0.00    0.00    0.05    1.50    0.00    0.00   83.91    0.16    0.34    1.60    0.00    0.00    0.00    0.00    0.00     0.00    0.00    0.00    0.00
  365    1.30    0.00    0.04    1.50    0.00    0.00   83.91    0.01    0.01    1.60    0.00    0.00    0.00    0.00    0.00     0.00    0.00    0.00    0.00
   12   84.80   13.08    2.15   39.46   54.17    0.00   83.91    7.74   13.03   56.28    0.07    0.01    0.00    0.31    0.00     0.02    0.01    0.01    0.00

 2002  993.50   57.43   22.85  370.16  466.31    0.00   83.91  425.19  796.34  468.56    0.48    0.65    0.06   12.38   19.39     0.22    0.04    0.07    0.00
1
    SWAT Dec 23 2016    VER 2016/Rev 664                                            

    General Input/Output section (file.cio):                                        
    4/18/2018 12:00:00 AM ARCGIS-SWAT interface AV                                  
                                                                                    
Annual Summary for Watershed in year    5 of simulation

UNIT                                    PERCO    TILE                           WATER     SED     NO3     NO3     NO3     NO3        N       P       P
TIME     PREC    SURQ    LATQ     GWQ    LATE       Q     SW       ET     PET   YIELD   YIELD    SURQ    LATQ    PERC    CROP  ORGANIC SOLUBLE ORGANIC TILENO3
         (mm)    (mm)    (mm)    (mm)    (mm)    (mm)    (mm)    (mm)    (mm)    (mm)   (t/ha)  ------------------(kg nutrient/ha)-------------------- (kg/ha)
    1    8.60    0.19    0.08    1.51    5.74    0.00   86.18    0.02    0.04    1.82    0.00    0.00    0.00    0.06    0.00     0.00    0.00    0.00    0.00
    2    6.60    0.00    0.06    1.51    0.01    0.00   86.18    0.01    0.01    1.64    0.00    0.00    0.00    0.00    0.00     0.00    0.00    0.00    0.00
    3    0.50    0.00    0.05    1.51    0.00    0.00   86.17    0.00    0.00    1.62    0.00    0.00    0.00    0.00    0.00     0.00    0.00    0.00    0.00
    4    3.30    0.00    0.05    1.51    0.00    0.00   86.09    0.09    0.18    1.62    0.00    0.00    0.00    0.00    0.00     0.00    0.00    0.00    0.00
    5    0.50    0.00    0.04    1.51    0.00    0.00   86.09    0.00    0.00    1.61    0.00    0.00    0.00    0.00    0.00     0.00    0.00    0.00    0.00
    6    1.30    0.00    0.04    1.50    0.00    0.00   86.09    0.01    0.01    1.60    0.00    0.00    0.00    0.00    0.00     0.00    0.00    0.00    0.00
    7    0.00    0.00    0.03    1.50    0.00    0.00   85.62    0.48    0.97    1.59    0.00    0.00    0.00    0.00    0.00     0.00    0.00    0.00    0.00
    8    0.30    0.00    0.03    1.49    0.00    0.00   85.61    0.01    0.01    1.58    0.00    0.00    0.00    0.00    0.00     0.00    0.00    0.00    0.00
    9    7.60    0.00    0.03    1.48    0.00    0.00   85.57    0.05    0.12    1.57    0.00    0.00    0.00    0.00    0.00     0.00    0.00    0.00    0.00
   10    3.00    0.00    0.03    1.47    0.00    0.00   85.57    0.00    0.01    1.55    0.00    0.00    0.00    0.00    0.00     0.00    0.00    0.00    0.00
   11    0.00    0.00    0.03    1.46    0.00    0.00   85.46    0.12    0.27    1.54    0.00    0.00    0.00    0.00    0.00     0.00    0.00    0.00    0.00
   12    0.00    0.00    0.02    1.44    0.00    0.00   85.08    0.39    0.94    1.52    0.00    0.00    0.00    0.00    0.00     0.00    0.00    0.00    0.00
   13    0.00    0.00    0.02    1.43    0.00    0.00   84.73    0.36    0.94    1.51    0.00    0.00    0.00    0.00    0.00     0.00    0.00    0.00    0.00
   14    0.00    0.00    0.02    1.41    0.00    0.00   84.39    0.35    0.95    1.49    0.00    0.00    0.00    0.00    0.00     0.00    0.00    0.00    0.00
   15    0.00    0.00    0.02    1.39    0.00    0.00   84.11    0.29    0.83    1.47    0.00    0.00    0.00    0.00    0.00     0.00    0.00    0.00    0.00
   16    0.00    0.00    0.02    1.38    0.00    0.00   84.11    0.01    0.01    1.45    0.00    0.00    0.00    0.00    0.00     0.00    0.00    0.00    0.00
   17    0.00    0.00    0.02    1.36    0.00    0.00   83.95    0.16    0.48    1.43    0.00    0.00    0.00    0.00    0.00     0.00    0.00    0.00    0.00
   18    0.00    0.00    0.02    1.34    0.00    0.00   83.89    0.06    0.18    1.41    0.00    0.00    0.00    0.00    0.00     0.00    0.00    0.00    0.00
   19    0.00    0.00    0.02    1.32    0.00    0.00   83.83    0.07    0.19    1.39    0.00    0.00    0.00    0.00    0.00     0.00    0.00    0.00    0.00
   20    0.00    0.00    0.01    1.30    0.00    0.00   83.65    0.19    0.57    1.37    0.00    0.00    0.00    0.00    0.00     0.00    0.00    0.00    0.00
   21    0.00    0.00    0.01    1.28    0.00    0.00   83.48    0.18    0.55    1.35    0.00    0.00    0.00    0.00    0.00     0.00    0.00    0.00    0.00
   22    0.00    0.00    0.01    1.26    0.00    0.00   83.48    0.01    0.01    1.33    0.00    0.00    0.00    0.00    0.00     0.00    0.00    0.00    0.00
   23    0.00    0.00    0.01    1.24    0.00    0.00   83.41    0.08    0.24    1.31    0.00    0.00    0.00    0.00    0.00     0.00    0.00    0.00    0.00
   24    0.00    0.00    0.01    1.22    0.00    0.00   83.24    0.18    0.57    1.29    0.00    0.00    0.00    0.00    0.00     0.00    0.00    0.00    0.00
   25    0.00    0.00    0.01    1.20    0.00    0.00   83.03    0.22    0.69    1.26    0.00    0.00    0.00    0.00    0.00     0.00    0.00    0.00    0.00
   26    1.00    0.00    0.01    1.17    0.00    0.00   83.01    0.03    0.10    1.24    0.00    0.00    0.00    0.00    0.00     0.00    0.00    0.00    0.00
   27    0.30    0.00    0.01    1.15    0.00    0.00   83.01    0.00    0.01    1.22    0.00    0.00    0.00    0.00    0.00     0.00    0.00    0.00    0.00
   28    0.00    0.00    0.01    1.13    0.00    0.00   82.93    0.09    0.28    1.20    0.00    0.00    0.00    0.00    0.00     0.00    0.00    0.00    0.00
   29    0.00    0.00    0.01    1.11    0.00    0.00   82.54    0.41    1.32    1.18    0.00    0.00    0.00    0.00    0.00     0.00    0.00    0.00    0.00
   30    0.00    0.00    0.01    1.09    0.00    0.00   82.51    0.04    0.13    1.15    0.00    0.00    0.00    0.00    0.00     0.00    0.00    0.00    0.00
   31    0.00    0.00    0.01    1.07    0.00    0.00   82.28    0.24    0.80    1.13    0.00    0.00    0.00    0.00    0.00     0.00    0.00    0.00    0.00
    1   33.00    0.19    0.76   41.72    5.75    0.00   82.28    4.17   11.42   44.45    0.00    0.00    0.00    0.06    0.00     0.00    0.00    0.00    0.00
   32    1.30    0.00    0.01    1.04    0.00    0.00   82.25    0.03    0.10    1.11    0.00    0.00    0.00    0.00    0.00     0.00    0.00    0.00    0.00
   33   17.00    3.90    0.01    1.02    0.00    0.00   95.05    0.31    0.61    4.84    0.04    0.12    0.00    0.00    0.00     0.01    0.00    0.00    0.00
   34    0.00    0.00    0.02    1.01    7.35    0.00   87.58    0.80    1.59    1.22    0.00    0.01    0.00    0.09    0.00     0.00    0.00    0.00    0.00
   35   10.40    0.36    0.05    1.01    9.50    0.00   87.74    0.02    0.02    1.47    0.00    0.01    0.00    0.26    0.00     0.00    0.00    0.00    0.00
   36    0.00    0.00    0.04    1.01    0.00    0.00   87.04    0.73    1.45    1.13    0.00    0.00    0.00    0.00    0.00     0.00    0.00    0.00    0.00
   37    0.00    0.00    0.03    1.01    0.00    0.00   86.65    0.41    0.80    1.10    0.00    0.00    0.00    0.00    0.00     0.00    0.00    0.00    0.00
   38    5.80    0.00    0.03    1.01    0.00    0.00   86.65    0.01    0.01    1.09    0.00    0.00    0.00    0.00    0.00     0.00    0.00    0.00    0.00
   39    0.00    0.00    0.02    1.01    0.00    0.00   86.38    0.29    0.58    1.08    0.00    0.00    0.00    0.00    0.00     0.00    0.00    0.00    0.00
   40    0.00    0.00    0.02    1.00    0.00    0.00   85.99    0.40    0.79    1.08    0.00    0.00    0.00    0.00    0.00     0.00    0.00    0.00    0.00
   41    0.00    0.00    0.02    0.99    0.00    0.00   85.59    0.43    0.85    1.07    0.00    0.00    0.00    0.00    0.00     0.00    0.00    0.00    0.00
   42    0.30    0.00    0.02    0.99    0.00    0.00   85.59    0.01    0.02    1.06    0.00    0.00    0.00    0.00    0.00     0.00    0.00    0.00    0.00
   43    1.80    0.00    0.01    0.98    0.00    0.00   85.59    0.01    0.01    1.05    0.00    0.00    0.00    0.00    0.00     0.00    0.00    0.00    0.00
   44    0.00    0.00    0.01    0.97    0.00    0.00   85.38    0.22    0.44    1.04    0.00    0.00    0.00    0.00    0.00     0.00    0.00    0.00    0.00
   45    0.00    0.00    0.01    0.96    0.00    0.00   85.23    0.16    0.31    1.03    0.00    0.00    0.00    0.00    0.00     0.00    0.00    0.00    0.00
   46    0.00    0.00    0.01    0.95    0.00    0.00   85.04    0.20    0.40    1.01    0.00    0.00    0.00    0.00    0.00     0.00    0.00    0.00    0.00
   47    0.00    0.00    0.01    0.94    0.00    0.00   84.97    0.09    0.17    1.00    0.00    0.00    0.00    0.00    0.00     0.00    0.00    0.00    0.00
   48    0.80    0.00    0.01    0.93    0.00    0.00   84.97    0.00    0.00    0.99    0.00    0.00    0.00    0.00    0.00     0.00    0.00    0.00    0.00
   49    0.00    0.00    0.01    0.91    0.00    0.00   84.72    0.27    0.57    0.98    0.00    0.00    0.00    0.00    0.00     0.00    0.00    0.00    0.00
   50    0.30    0.00    0.01    0.90    0.00    0.00   84.54    0.20    0.44    0.96    0.00    0.00    0.00    0.00    0.00     0.00    0.00    0.00    0.00
   51    0.00    0.00    0.01    0.89    0.00    0.00   84.54    0.47    0.91    0.95    0.00    0.00    0.00    0.00    0.00     0.00    0.00    0.00    0.00
   52    0.00    0.00    0.01    0.88    0.00    0.00   84.54    0.75    1.49    0.94    0.00    0.00    0.00    0.00    0.00     0.00    0.00    0.00    0.00
   53   18.00    1.09    0.05    0.88   13.06    0.00   87.83    0.29    0.59    2.01    0.01    0.03    0.00    0.43    0.00     0.00    0.00    0.00    0.00
   54   19.10    0.00    0.03    0.88    0.00    0.00   87.83    0.02    0.02    1.02    0.00    0.00    0.00    0.00    0.00     0.00    0.00    0.00    0.00
   55    0.00    0.00    0.03    0.89    0.00    0.00   87.40    0.45    0.88    0.97    0.00    0.00    0.00    0.00    0.00     0.00    0.00    0.00    0.00
   56    0.00    0.00    0.02    0.89    0.00    0.00   87.20    0.22    0.43    0.96    0.00    0.00    0.00    0.00    0.00     0.00    0.00    0.00    0.00
   57    0.00    0.00    0.02    0.88    0.00    0.00   86.92    0.29    0.57    0.96    0.00    0.00    0.00    0.00    0.00     0.00    0.00    0.00    0.00
   58    0.00    0.00    0.02    0.88    0.00    0.00   86.74    0.20    0.39    0.95    0.00    0.00    0.00    0.00    0.00     0.00    0.00    0.00    0.00
   59    0.00    0.00    0.01    0.88    0.00    0.00   86.59    0.17    0.33    0.95    0.00    0.00    0.00    0.00    0.00     0.00    0.00    0.00    0.00
    2   74.80    5.35    0.53   26.60   29.91    0.00   86.59    7.44   14.79   34.00    0.05    0.17    0.00    0.78    0.00     0.02    0.00    0.00    0.00
   60    0.00    0.00    0.01    0.87    0.00    0.00   85.78    0.84    1.66    0.94    0.00    0.00    0.00    0.00    0.00     0.00    0.00    0.00    0.00
   61   24.90    0.00    0.01    0.87    0.00    0.00   85.78    0.04    0.07    0.93    0.00    0.00    0.00    0.00    0.00     0.00    0.00    0.00    0.00
   62    0.00    0.00    0.01    0.86    0.00    0.00   85.30    0.50    0.99    0.93    0.00    0.00    0.00    0.00    0.00     0.00    0.00    0.00    0.00
   63    0.00    0.00    0.01    0.86    0.00    0.00   85.05    0.27    0.53    0.92    0.00    0.00    0.00    0.00    0.00     0.00    0.00    0.00    0.00
   64    4.80    0.08    0.01    0.85    1.80    0.00   87.85    0.18    0.36    0.99    0.00    0.01    0.00    0.08    0.00     0.00    0.00    0.00    0.00
   65    0.00    0.00    0.01    0.84    0.00    0.00   87.34    0.53    1.04    0.91    0.00    0.00    0.00    0.00    0.00     0.00    0.00    0.00    0.00
   66    1.80    0.00    0.01    0.84    0.00    0.00   87.34    0.01    0.02    0.90    0.00    0.00    0.00    0.00    0.00     0.00    0.00    0.00    0.00
   67    0.30    0.00    0.01    0.83    0.66    0.00   86.65    0.08    0.15    0.89    0.00    0.00    0.00    0.03    0.00     0.00    0.00    0.00    0.00
   68    0.00    0.00    0.02    0.82    0.14    0.00   85.71    0.80    1.60    0.89    0.00    0.00    0.00    0.00    0.00     0.00    0.00    0.00    0.00
   69    0.00    0.00    0.01    0.82    0.00    0.00   85.42    0.32    0.77    0.88    0.00    0.00    0.00    0.00    0.00     0.00    0.00    0.00    0.00
   70    0.00    0.00    0.01    0.81    0.00    0.00   85.22    0.21    0.54    0.87    0.00    0.00    0.00    0.00    0.00     0.00    0.00    0.00    0.00
   71    0.00    0.00    0.01    0.80    0.00    0.00   85.22    0.54    1.07    0.86    0.00    0.00    0.00    0.00    0.00     0.00    0.00    0.00    0.00
   72    0.00    0.00    0.01    0.79    0.00    0.00   84.42    0.83    2.22    0.85    0.00    0.00    0.00    0.00    0.00     0.00    0.00    0.00    0.00
   73    1.50    0.00    0.01    0.78    0.00    0.00   84.41    0.02    0.02    0.84    0.00    0.00    0.00    0.00    0.00     0.00    0.00    0.00    0.00
   74    2.00    0.00    0.01    0.77    0.00    0.00   84.37    0.05    0.14    0.83    0.00    0.00    0.00    0.00    0.00     0.00    0.00    0.00    0.00
   75    0.00    0.00    0.01    0.76    0.00    0.00   84.16    0.23    0.67    0.81    0.00    0.00    0.00    0.00    0.00     0.00    0.00    0.00    0.00
   76    0.00    0.00    0.01    0.75    0.07    0.00   84.08    1.12    2.22    0.81    0.00    0.00    0.00    0.00    0.00     0.00    0.00    0.00    0.00
   77    0.00    0.00    0.01    0.74    0.01    0.00   84.07    0.77    1.52    0.79    0.00    0.00    0.00    0.00    0.00     0.00    0.00    0.00    0.00
   78    0.00    0.00    0.01    0.72    0.00    0.00   83.47    0.62    1.89    0.78    0.00    0.00    0.00    0.00    0.00     0.00    0.00    0.00    0.00
   79    7.90    0.00    0.01    0.71    0.00    0.00   83.46    0.01    0.01    0.77    0.00    0.00    0.00    0.00    0.00     0.00    0.00    0.00    0.00
   80   19.30    6.92    0.18    0.74   28.57    0.00   86.49    0.00    0.00    7.62    0.09    0.06    0.00    1.16    0.00     0.02    0.00    0.00    0.00
   81    0.00    0.94    0.22    0.79   15.24    0.00   86.53    0.75    1.49    2.20    0.00    0.01    0.00    0.63    0.00     0.00    0.00    0.00    0.00
   82    0.00    0.48    0.23    0.85   11.57    0.00   86.53    1.12    2.22    1.65    0.00    0.00    0.00    0.45    0.00     0.00    0.00    0.00    0.00
   83    0.00    0.00    0.17    0.90    0.02    0.00   86.51    0.89    1.75    1.15    0.00    0.00    0.00    0.00    0.00     0.00    0.00    0.00    0.00
   84    0.00    0.00    0.14    0.95    0.01    0.00   86.50    0.88    1.73    1.14    0.00    0.00    0.00    0.00    0.00     0.00    0.00    0.00    0.00
   85    5.30    4.27    0.26    1.02   24.83    0.00   86.53    0.33    0.65    5.44    0.06    0.01    0.00    0.72    0.00     0.01    0.00    0.00    0.00
   86    0.30    0.00    0.20    1.09    0.31    0.00   86.51    0.01    0.01    1.50    0.00    0.00    0.00    0.01    0.00     0.00    0.00    0.00    0.00
   87    0.00    0.00    0.16    1.16    0.01    0.00   86.50    0.69    1.36    1.38    0.00    0.00    0.00    0.00    0.00     0.00    0.00    0.00    0.00
   88   11.70   11.19    0.32    1.26   32.84    0.00   86.54    0.17    0.32   12.42    0.14    0.02    0.00    0.70    0.00     0.02    0.00    0.00    0.00
   89   13.20    0.53    0.32    1.37   11.99    0.00   86.54    0.03    0.04    2.62    0.00    0.00    0.00    0.28    0.00     0.00    0.00    0.00    0.00
   90    0.00    0.00    0.25    1.47    0.03    0.00   85.49    1.05    2.10    1.83    0.00    0.00    0.00    0.00    0.00     0.00    0.00    0.00    0.00
    3   93.00   24.42    2.67   27.66  128.11    0.00   85.49   13.89   29.17   56.34    0.30    0.12    0.01    4.07    0.00     0.07    0.01    0.02    0.00
   91    0.30    0.00    0.20    1.56    0.01    0.00   85.48    0.03    0.04    1.83    0.00    0.00    0.00    0.00    0.00     0.00    0.00    0.00    0.00
[...]
   4759  25   Gravel a   .284E-02   69.23   90.00    0.75    0.00   82.02    0.00    0.20 1058.75  202.68  334.30  487.21    1.26    2.88    0.34    1.21    0.00  202.68
   4760  25   Hinckley   .189E-02   69.23   90.00    1.42    0.00   81.55    0.00    0.20 1058.75  202.43  335.86  486.32    1.61    3.12    0.35    1.20    0.00  202.43
   4761  25   Hinckley   .170E-01   69.23   90.00    0.24    0.00   82.24    0.00    0.20 1058.75  202.79  333.64  487.60    0.43    2.77    0.31    1.21    0.00  202.79
   4762  25   Hollis-C   .947E-03   69.23   90.00    2.21    0.00   78.22    0.00    0.20 1058.75  200.98  344.71  481.09    2.39    4.44    0.37    1.18    0.00  200.98
   4763  25   Hollis-C   .947E-03   69.23   90.00    0.72    0.00   82.03    0.00    0.20 1058.75  202.68  334.28  487.23    2.33    2.89    0.37    1.21    0.00  202.68
   4764  25   Hollis-C   .473E-02   69.23   90.00    1.28    0.00   81.60    0.00    0.20 1058.75  202.45  335.70  486.41    0.96    3.09    0.33    1.20    0.00  202.45
   4765  25   Rumney f   .284E-02   69.23   90.00    1.33    0.00   81.58    0.00    0.20 1058.75  202.44  335.76  486.38    1.28    3.10    0.34    1.20    0.00  202.44
   4766  25   Rumney f   .189E-02   69.23   90.00    0.87    0.00   81.99    0.00    0.20 1058.75  202.66  334.41  487.15    1.58    2.90    0.35    1.21    0.00  202.66
   4767  25   Saugatuc   .947E-03   69.23   90.00    0.98    0.00   81.71    0.00    0.20 1058.75  202.51  335.31  486.63    2.38    3.05    0.37    1.20    0.00  202.51
   4768  25   Saugatuc   .663E-02   69.23   90.00    0.38    0.00   82.14    0.00    0.20 1058.75  202.74  333.93  487.43    0.77    2.82    0.33    1.21    0.00  202.74
   4769  25   Scantic    .947E-03   69.23   90.00    0.98    0.00   81.71    0.00    0.20 1058.75  202.51  335.31  486.63    2.38    3.05    0.37    1.20    0.00  202.51
   4770  25   Scantic    .568E-02   69.23   90.00    0.50    0.00   82.10    0.00    0.20 1058.75  202.72  334.06  487.35    0.84    2.84    0.33    1.21    0.00  202.72
   4771  25   Suffield   .417E-01   69.23   90.00    0.54    0.00   82.09    0.00    0.20 1058.75  202.71  334.10  487.33    0.27    2.83    0.29    1.21    0.00  202.71
   4772  25   Suffield   .189E-02   69.23   90.00    2.54    0.00   77.93    0.00    0.20 1058.75  200.81  345.71  480.49    1.61    4.56    0.35    1.18    0.00  200.81
   4773  25   Suffield   .293E-01   69.23   90.00    1.67    0.00   81.46    0.00    0.20 1058.75  202.38  336.13  486.16    0.34    3.14    0.30    1.20    0.00  202.38
   4774  25   Water      .189E-02   84.00    0.25    1.47    0.00   52.43    0.00    0.20 1058.75  217.24  748.74   41.98    1.61    2.15    0.35    0.05    0.00  217.24
   4775  25   Water      .473E-02   84.00    0.25    0.44    0.00   52.72    0.00    0.20 1058.75  217.24  744.77   41.98    0.93    1.17    0.33    0.05    0.00  217.24
   4776  25   Windsor    .133E-01   69.23   90.00    1.53    0.00   81.51    0.00    0.20 1058.75  202.41  335.98  486.25    0.54    3.12    0.31    1.20    0.00  202.41
   4777  25   Windsor    .312E-01   69.23   90.00    0.33    0.00   82.16    0.00    0.20 1058.75  202.75  333.87  487.46    0.32    2.80    0.30    1.21    0.00  202.75
   4778  25   Windsor    .123E-01   69.23   90.00    0.48    0.00   82.11    0.00    0.20 1058.75  202.72  334.04  487.36    0.54    2.83    0.31    1.21    0.00  202.72
   4779  25   Windsor    .189E-02   69.23   90.00    1.18    0.00   81.64    0.00    0.20 1058.75  202.47  335.57  486.49    1.61    3.08    0.35    1.20    0.00  202.47
   4780  25   Windsor    .114E-01   69.23   90.00    1.28    0.00   81.60    0.00    0.20 1058.75  202.45  335.70  486.41    0.59    3.08    0.32    1.20    0.00  202.45
   4781  25   Windsor    .218E-01   69.23   90.00    0.33    0.00   82.16    0.00    0.20 1058.75  202.75  333.87  487.46    0.39    2.80    0.30    1.21    0.00  202.75
   4782  25   Gravel a   .947E-03   55.00   90.00    1.88    0.00    0.00    0.00    0.20 1058.75   27.74  520.43  467.49    0.00    0.02    0.00    3.03    0.00   27.74
   4783  25   Hinckley   .757E-02   55.00   90.00    2.11    0.00    0.00    0.00    0.20 1058.75   27.72  520.62  467.41    0.00    0.02    0.00    3.03    0.00   27.72
   4784  25   Hinckley   .189E-02   55.00   90.00    0.29    0.00    0.00    0.00    0.20 1058.75   27.93  518.20  468.38    0.00    0.00    0.00    3.02    0.00   27.93
   4785  25   Hollis-C   .947E-03   55.00   90.00    1.80    0.00    0.00    0.00    0.20 1058.75   27.19  526.29  465.12    0.00    0.05    0.00    3.06    0.00   27.19
   4786  25   Rumney f   .568E-02   55.00   90.00    1.76    0.00    0.00    0.00    0.20 1058.75   27.75  520.33  467.53    0.00    0.02    0.00    3.03    0.00   27.75
   4787  25   Rumney f   .653E-01   55.00   90.00    0.29    0.00    0.00    0.00    0.20 1058.75   27.93  518.20  468.38    0.00    0.00    0.00    3.02    0.00   27.93
   4788  25   Saugatuc   .947E-03   55.00   90.00    1.31    0.00    0.00    0.00    0.20 1058.75   27.79  519.90  467.70    0.00    0.02    0.00    3.03    0.00   27.79
   4789  25   Saugatuc   .947E-03   55.00   90.00    0.29    0.00    0.00    0.00    0.20 1058.75   27.93  518.20  468.38    0.00    0.00    0.00    3.02    0.00   27.93
   4790  25   Scantic    .199E-01   55.00   90.00    0.21    0.00    0.00    0.00    0.20 1058.75   27.93  518.13  468.40    0.00    0.00    0.00    3.02    0.00   27.93
   4791  25   Suffield   .322E-01   55.00   90.00    1.70    0.00    0.00    0.00    0.20 1058.75   27.76  520.27  467.55    0.00    0.02    0.00    3.03    0.00   27.76
   4792  25   Suffield   .227E-01   55.00   90.00    0.50    0.00    0.00    0.00    0.20 1058.75   27.90  518.52  468.25    0.00    0.01    0.00    3.02    0.00   27.90
   4793  25   Suffield   .379E-02   55.00   90.00    2.52    0.00    0.00    0.00    0.20 1058.75   26.64  532.50  462.42    0.00    0.09    0.00    3.09    0.00   26.64
   4794  25   Water      .417E-01   77.00    0.25    0.31    0.00    0.00    0.00    0.20 1058.75   71.37  882.96   41.91    0.00    0.00    0.00    0.01    0.00   71.37
   4795  25   Water      .104E-01   77.00    0.25    1.33    0.00    0.00    0.00    0.20 1058.75   71.37  887.09   41.91    0.00    0.00    0.00    0.01    0.00   71.37
   4796  25   Windsor    .483E-01   55.00   90.00    0.46    0.00    0.00    0.00    0.20 1058.75   27.90  518.48  468.26    0.00    0.01    0.00    3.02    0.00   27.90
   4797  25   Windsor    .133E-01   55.00   90.00    1.95    0.00    0.00    0.00    0.20 1058.75   27.74  520.49  467.47    0.00    0.02    0.00    3.03    0.00   27.74
   4798  25   Windsor    .151E-01   55.00   90.00    0.54    0.00    0.00    0.00    0.20 1058.75   27.90  518.56  468.23    0.00    0.01    0.00    3.02    0.00   27.90
   4799  25   Windsor    .104E-01   55.00   90.00    1.42    0.00    0.00    0.00    0.20 1058.75   27.78  520.01  467.66    0.00    0.02    0.00    3.03    0.00   27.78
   4800  25   Windsor    .947E-03   55.00   90.00    1.82    0.00    0.00    0.00    0.20 1058.75   27.75  520.38  467.51    0.00    0.02    0.00    3.03    0.00   27.75
   4801  25   Gravel a   .189E-02   77.00   90.00    1.56    0.00  146.90    0.00    0.20 1058.75  203.79  383.95  435.06    0.00    2.19    0.00    1.32    0.46  203.79
   4802  25   Hollis-C   .284E-02   77.00   90.00    2.21    0.00  143.38    0.00    0.20 1058.75  201.71  392.27  431.49    0.00    4.04    0.00    1.29    0.44  201.71
   4803  25   Hollis-C   .303E-01   77.00   90.00    2.04    0.00  146.74    0.00    0.20 1058.75  203.67  384.44  434.85    0.00    2.27    0.00    1.32    0.46  203.67
   4804  25   Hollis-C   .947E-03   77.00   90.00    0.89    0.00  147.17    0.00    0.20 1058.75  203.99  383.14  435.39    0.00    2.05    0.00    1.33    0.46  203.99
   4805  25   Saugatuc   .947E-03   77.00   90.00    0.89    0.00  147.17    0.00    0.20 1058.75  203.99  383.14  435.39    0.00    2.05    0.00    1.33    0.46  203.99
   4806  25   Saugatuc   .189E-02   77.00   90.00    1.61    0.00  146.88    0.00    0.20 1058.75  203.78  384.01  435.04    0.00    2.20    0.00    1.32    0.46  203.78
   4807  25   Scantic    .947E-03   77.00   90.00    0.77    0.00  147.26    0.00    0.20 1058.75  204.20  382.34  435.73    0.00    2.47    0.00    1.33    0.46  204.20
   4808  25   Scantic    .189E-02   77.00   90.00    1.13    0.00  147.06    0.00    0.20 1058.75  203.91  383.45  435.26    0.00    2.10    0.00    1.33    0.46  203.92
   4809  25   Suffield   .275E-01   77.00   90.00    1.58    0.00  146.89    0.00    0.20 1058.75  203.78  383.98  435.05    0.00    2.20    0.00    1.32    0.46  203.78
   4810  25   Suffield   .104E-01   77.00   90.00    0.80    0.00  147.26    0.00    0.20 1058.75  204.19  382.36  435.72    0.00    2.47    0.00    1.33    0.46  204.19
   4811  25   Suffield   .284E-02   77.00   90.00    2.51    0.00  143.03    0.00    0.20 1058.75  201.48  393.13  431.12    0.00    4.14    0.00    1.28    0.44  201.48
   4812  25   Water      .947E-03   87.00    0.25    2.69    0.00   47.20    0.00    0.20 1058.75  173.90  794.00   40.73    0.00    1.99    0.00    0.03    0.01  173.90
   4813  25   Windsor    .757E-02   77.00   90.00    0.33    0.00  147.45    0.00    0.20 1058.75  204.30  381.90  435.91    0.00    2.39    0.00    1.33    0.46  204.30
   4814  25   Windsor    .473E-02   77.00   90.00    1.39    0.00  146.72    0.00    0.20 1058.75  203.84  383.77  435.13    0.00    2.72    0.00    1.32    0.46  203.84
   4815  25   Hinckley   .947E-03   69.00   90.00    2.31    0.00    0.00    0.00    0.20 1058.75  113.83  465.44  439.78    0.00    0.04    0.00    0.21    0.06  113.83
   4816  25   Rumney f   .852E-02   69.00   90.00    1.73    0.00    0.00    0.00    0.20 1058.75  113.92  464.95  439.96    0.00    0.04    0.00    0.21    0.06  113.92
   4817  25   Rumney f   .947E-02   69.00   90.00    0.30    0.00    0.00    0.00    0.20 1058.75  114.29  462.90  440.73    0.00    0.02    0.00    0.21    0.06  114.29
   4818  25   Scantic    .947E-03   69.00   90.00    0.17    0.00    0.00    0.00    0.20 1058.75  114.34  462.63  440.82    0.00    0.02    0.00    0.21    0.06  114.34
   4819  25   Suffield   .189E-02   69.00   90.00    0.80    0.00    0.00    0.00    0.20 1058.75  114.10  463.97  440.33    0.00    0.03    0.00    0.21    0.06  114.10
   4820  25   Suffield   .947E-02   69.00   90.00    2.01    0.00    0.00    0.00    0.20 1058.75  113.87  465.20  439.87    0.00    0.04    0.00    0.21    0.06  113.87
   4821  25   Water      .189E-02   84.00    0.25    2.36    0.00    0.00    0.00    0.20 1058.75  141.18  837.64   40.60    0.00    0.00    0.00    0.00    0.00  141.18
   4822  25   Water      .133E-01   84.00    0.25    1.85    0.00    0.00    0.00    0.20 1058.75  141.42  823.63   40.64    0.00    0.00    0.00    0.00    0.00  141.42
   4823  25   Water      .151E-01   84.00    0.25    0.28    0.00    0.00    0.00    0.20 1058.75  141.48  818.53   40.63    0.00    0.00    0.00    0.00    0.00  141.48
   4824  25   Windsor    .123E-01   69.00   90.00    2.31    0.00    0.00    0.00    0.20 1058.75  113.83  465.44  439.78    0.00    0.04    0.00    0.21    0.06  113.83
   4825  25   Windsor    .151E-01   69.00   90.00    0.27    0.00    0.00    0.00    0.20 1058.75  114.32  462.74  440.78    0.00    0.02    0.00    0.21    0.06  114.32
   4826  25   Windsor    .947E-03   69.00   90.00    0.93    0.00    0.00    0.00    0.20 1058.75  114.07  464.13  440.27    0.00    0.03    0.00    0.21    0.06  114.07
   4827  25   Water      .284E-02   92.00    0.25    1.50    0.00    0.00    0.00    0.20 1058.75    0.00    0.00  899.18    0.00    0.00    0.00    0.00    0.00    0.00
   4828  25   Water      .189E-02   92.00    0.25    0.27    0.00    0.00    0.00    0.20 1058.75    0.00    0.00  899.18    0.00    0.00    0.00    0.00    0.00    0.00
   4829  25   Rumney f   .114E-01   66.00   90.00    0.24    0.00    0.00    0.00    0.20 1058.75   85.29  475.62  455.61    0.00    0.01    0.00    2.59    0.00   85.29
   4830  25   Rumney f   .189E-02   66.00   90.00    1.64    0.00    0.00    0.00    0.20 1058.75   84.89  477.80  454.86    0.00    0.01    0.00    2.60    0.00   84.89
   4831  25   Scantic    .947E-03   66.00   90.00    0.14    0.00    0.00    0.00    0.20 1058.75   85.31  475.51  455.65    0.00    0.00    0.00    2.59    0.00   85.31
   4832  25   Suffield   .947E-03   66.00   90.00    2.39    0.00    0.00    0.00    0.20 1058.75   83.31  485.67  452.00    0.00    0.05    0.00    2.63    0.00   83.31
   4833  25   Water      .568E-02   83.00    0.25    0.44    0.00    0.00    0.00    0.20 1058.75  132.97  827.16   40.47    0.00    0.00    0.00    0.01    0.00  132.97
   4834  25   Water      .568E-02   83.00    0.25    2.41    0.00    0.00    0.00    0.20 1058.75  132.89  832.95   40.48    0.00    0.00    0.00    0.01    0.00  132.89
   4835  25   Windsor    .284E-02   66.00   90.00    2.69    0.00    0.00    0.00    0.20 1058.75   84.73  478.67  454.55    0.00    0.02    0.00    2.61    0.00   84.73



                AVE MONTHLY BASIN VALUES
                   SNOW                      WATER               SED
  MON     RAIN     FALL   SURF Q    LAT Q    YIELD       ET    YIELD      PET
          (MM)     (MM)     (MM)     (MM)     (MM)     (MM)   (T/HA)     (MM)
    1    50.33    27.08     3.84     1.45    48.93     6.96     0.03    15.89
    2    62.37    43.22     4.25     0.94    38.63     9.43     0.04    20.43
    3    85.65    29.58    11.67     2.21    51.05    19.31     0.12    38.27
    4    96.90     2.43    11.78     3.21    70.36    43.70     0.12    83.51
    5   101.66     0.00     7.06     2.45    69.42    59.29     0.11   115.64
    6   109.92     0.00     4.71     2.30    56.44    70.48     0.07   119.88
    7    87.39     0.00     5.52     1.74    46.33    79.81     0.07   132.57
    8    87.34     0.00     3.97     1.76    31.43    65.28     0.06   116.00
    9    88.46     0.00     4.62     1.60    24.87    44.31     0.05    78.63
   10   119.83     0.00    11.81     2.45    38.08    34.12     0.08    52.09
   11    85.71     8.04     5.48     2.29    43.68    22.66     0.04    30.99
   12    82.64    28.64     5.17     2.06    52.07    12.88     0.03    18.20

     AVE ANNUAL BASIN STRESS DAYS
               WATER STRESS DAYS =     6.26
               TEMPERATURE STRESS DAYS =    76.87
               NITROGEN STRESS DAYS =    81.51
               PHOSPHORUS STRESS DAYS =     0.17
               AERATION STRESS DAYS =     0.00
1
    SWAT Dec 23 2016    VER 2016/Rev 664                                            

    General Input/Output section (file.cio):                                        
    4/18/2018 12:00:00 AM ARCGIS-SWAT interface AV                                  
                                                                                    
         AVE ANNUAL BASIN VALUES

              PRECIP =   1058.7 MM
              SNOW FALL =  139.36 MM
              SNOW MELT =   126.53 MM
              SUBLIMATION =    13.41 MM
              SURFACE RUNOFF Q =    79.92 MM
              LATERAL SOIL Q =   24.47 MM
              TILE Q =     0.00 MM
              GROUNDWATER (SHAL AQ) Q =   443.14 MM
              GROUNDWATER (DEEP AQ) Q =    24.09 MM
              REVAP (SHAL AQ => SOIL/PLANTS) =   15.99 MM
              DEEP AQ RECHARGE =    24.20 MM
              TOTAL AQ RECHARGE =  484.04 MM
              TOTAL WATER YLD =   571.61 MM
              PERCOLATION OUT OF SOIL =  484.24 MM
              ET =    468.3 MM
              PET =    822.3MM
              TRANSMISSION LOSSES =     0.00 MM
              SEPTIC INFLOW =       0.00 MM
              TOTAL SEDIMENT LOADING =      0.82 T/HA
              TILE FROM IMPOUNDED WATER =     0.000 (MM)
              EVAPORATION FROM IMPOUNDED WATER =     0.000 (MM)
              SEEPAGE INTO SOIL FROM IMPOUNDED WATER =    0.000 (MM)
              OVERFLOW FROM IMPOUNDED WATER =    0.000 (MM)
1
    SWAT Dec 23 2016    VER 2016/Rev 664                                            

    General Input/Output section (file.cio):                                        
    4/18/2018 12:00:00 AM ARCGIS-SWAT interface AV                                  
                                                                                    
              AVE ANNUAL BASIN VALUES


              NUTRIENTS
                   ORGANIC N =     0.235 (KG/HA)
                   ORGANIC P =     0.073 (KG/HA)
                   NO3 YIELD (SQ) =     0.517 (KG/HA)
                   NO3 YIELD (LAT) =    0.053 (KG/HA)
                   NO3 YIELD (TILE) =    0.000 (KG/HA)
                   SOLP YIELD (TILE) =    0.000(KG/HA)
                   SOLP YIELD (SURF INLET RISER) =    0.000 (KG/HA)
                   SOL P YIELD =    0.052 (KG/HA)
                   NO3 LEACHED =    11.010 (KG/HA)
                   P LEACHED =     0.201 (KG/HA)
                   N UPTAKE =    23.872 (KG/HA)
                   P UPTAKE =    5.108 (KG/HA)
                   NO3 YIELD (GWQ) =     0.115 (KG/HA)
                   ACTIVE TO SOLUTION P FLOW =        -1.458 (KG/HA)
                   ACTIVE TO STABLE P FLOW =        -1.268 (KG/HA)
                   N FERTILIZER APPLIED =    17.308 (KG/HA)
                   P FERTILIZER APPLIED =     0.000 (KG/HA)
                   N FIXATION =     0.000 (KG/HA)
                   DENITRIFICATION =     0.001 (KG/HA)
                   HUMUS MIN ON ACTIVE ORG N =     3.498 (KG/HA)
                   ACTIVE TO STABLE ORG N =    -0.391 (KG/HA)
                   HUMUS MIN ON ACTIVE ORG P =    0.608 (KG/HA)
                   MIN FROM FRESH ORG N =   16.780 (KG/HA)
                   MIN FROM FRESH ORG P =    3.768 (KG/HA)
                   NO3 IN RAINFALL =     0.000 (KG/HA)
                   INITIAL NO3 IN SOIL =      28.872 (KG/HA)
                   FINAL NO3 IN SOIL =         1.006 (KG/HA)
                   INITIAL ORG N IN SOIL =    5388.918 (KG/HA)
                   FINAL ORG N IN SOIL =      5398.628 (KG/HA)
                   INITIAL MIN P IN SOIL =    1105.121 (KG/HA)
                   FINAL MIN P IN SOIL =      1073.389 (KG/HA)
                   INITIAL ORG P IN SOIL =     660.141 (KG/HA)
                   FINAL ORG P IN SOIL =     666.323 (KG/HA)
                   NO3 IN FERT =    17.308 (KG/HA)
                   AMMONIA IN FERT =     0.000 (KG/HA)
                   ORG N IN FERT =     0.000 (KG/HA)
                   MINERAL P IN FERT =     0.000 (KG/HA)
                   ORG P IN FERT =     0.000 (KG/HA)
                   N REMOVED IN YIELD =     5.277 (KG/HA)
                   P REMOVED IN YIELD =     1.003 (KG/HA)
                   AMMONIA VOLATILIZATION =     0.000 (KG/HA)
                   AMMONIA NITRIFICATION =      0.000 (KG/HA)
                   NO3 EVAP-LAYER 2 TO 1 =    0.717

                   DIE-GRO P Q =           0.0 (No/M2)
                   DIE-GRO LP Q =           0.0 (No/M2)
                   DIE-GRO P SED =          0.0 (No/M2)
                   DIE-GRO LP SED =          0.0 (No/M2)
                   BACT P RUNOFF =          0.0 (No/M2)
                   BACT LP RUNOFF =          0.0 (No/M2)
                   BACT P SEDIMENT =          0.0 (No/M2)
                   BACT LP SEDIMENT =          0.0 (No/M2)
                   BACT P INCORP =          0.0 (No/M2)
                   BACT LP INCORP =          0.0 (No/M2)

                   NITRATE SEPTIC =         0.00 (kg/ha)
                   AMMONIA SEPTIC =         0.00 (kg/ha)
                   ORG N SEPTIC =         0.00 (kg/ha)
                   FRESH ORGN SEPTIC =         0.00 (kg/ha)
                   ORG P SEPTIC =         0.00 (kg/ha)
                   FRESH ORGP SEPTIC =         0.00 (kg/ha)
                   SOL P SEPTIC =         0.00 (kg/ha)
                   BOD SEPTIC =         0.00 (kg/ha)
